
 OpenBabel04012508592D

 20 20  0  0  0  0  0  0  0  0999 V2000
    7.9079   -6.7601    0.0000 N   0  0  0  0  0  0  0  0  0  0  0  0
   10.0231   -6.7601    0.0000 P   0  0  0  0  0  0  0  0  0  0  0  0
   11.7343   -8.0034    0.0000 N   0  0  0  0  0  0  0  0  0  0  0  0
   12.3879  -10.0151    0.0000 P   0  0  0  0  0  0  0  0  0  0  0  0
   11.7343  -12.0267    0.0000 N   0  0  0  0  0  0  0  0  0  0  0  0
    6.1967  -12.0267    0.0000 P   0  0  0  0  0  0  0  0  0  0  0  0
    6.1967   -8.0034    0.0000 P   0  0  0  0  0  0  0  0  0  0  0  0
    5.5430  -10.0151    0.0000 N   0  0  0  0  0  0  0  0  0  0  0  0
    7.9079  -13.2700    0.0000 N   0  0  0  0  0  0  0  0  0  0  0  0
   10.0231  -13.2700    0.0000 P   0  0  0  0  0  0  0  0  0  0  0  0
    5.9610   -6.4096    0.0000 F   0  0  0  0  0  0  0  0  0  0  0  0
    4.7592   -7.8678    0.0000 F   0  0  0  0  0  0  0  0  0  0  0  0
    9.6145   -4.9034    0.0000 F   0  0  0  0  0  0  0  0  0  0  0  0
   10.9605   -5.7046    0.0000 F   0  0  0  0  0  0  0  0  0  0  0  0
   13.4282   -9.0696    0.0000 F   0  0  0  0  0  0  0  0  0  0  0  0
   13.3641  -10.9605    0.0000 F   0  0  0  0  0  0  0  0  0  0  0  0
    9.5183  -14.7742    0.0000 F   0  0  0  0  0  0  0  0  0  0  0  0
   11.4733  -14.4217    0.0000 F   0  0  0  0  0  0  0  0  0  0  0  0
    5.9129  -13.5724    0.0000 F   0  0  0  0  0  0  0  0  0  0  0  0
    5.0155  -12.0181    0.0000 F   0  0  0  0  0  0  0  0  0  0  0  0
  1  2  1  0  0  0  0
  1  7  2  0  0  0  0
  2  3  2  0  0  0  0
  2 13  1  0  0  0  0
  2 14  1  0  0  0  0
  3  4  1  0  0  0  0
  4  5  2  0  0  0  0
  4 15  1  0  0  0  0
  4 16  1  0  0  0  0
  6  9  1  0  0  0  0
  6 19  1  0  0  0  0
  6 20  1  0  0  0  0
  7  8  1  0  0  0  0
  7 11  1  0  0  0  0
  7 12  1  0  0  0  0
  8  6  2  0  0  0  0
  9 10  2  0  0  0  0
 10  5  1  0  0  0  0
 10 17  1  0  0  0  0
 10 18  1  0  0  0  0
M  END
> <NMREDATA_VERSION>
1.1

> <NMREDATA_LEVEL>
0

> <NMREDATA_FORMULA>
F10N5P5

> <NMREDATA_SMILES>
FP1(=NP(=NP(=NP(=NP(=N1)(F)F)(F)F)(F)F)(F)F)F

> <NMREDATA_ASSIGNMENT>
P2, -21.90, 2
P4, -21.90, 4
P6, -21.90, 6
P7, -21.90, 7
P10, -21.90, 10

> <NMREDATA_1D_31P>
-21.90, L=P2
-21.90, L=P4
-21.90, L=P6
-21.90, L=P7
-21.90, L=P10

$$$$
