
 OpenBabel08102311352D

 76 79  0  0  0  0  0  0  0  0999 V2000
   22.8697  -14.2301    0.0000 C   0  0  0  0  0  0  0  0  0  0  0  0
   22.9359  -12.9017    0.0000 C   0  0  0  0  0  0  0  0  0  0  0  0
   23.9870  -14.9516    0.0000 C   0  0  0  0  0  0  0  0  0  0  0  0
   24.1195  -12.2949    0.0000 C   0  0  0  0  0  0  0  0  0  0  0  0
   25.1705  -14.3448    0.0000 C   0  0  0  0  0  0  0  0  0  0  0  0
   25.2368  -13.0164    0.0000 C   0  0  0  0  0  0  0  0  0  0  0  0
   18.0502  -10.6176    0.0000 N   0  0  0  0  0  0  0  0  0  0  0  0
   19.9195  -14.1150    0.0000 P   0  0  0  0  0  0  0  0  0  0  0  0
   19.7333  -15.9187    0.0000 N   0  0  0  0  0  0  0  0  0  0  0  0
   20.7953  -16.8220    0.0000 C   0  0  0  0  0  0  0  0  0  0  0  0
   18.5316  -16.8535    0.0000 C   0  0  0  0  0  0  0  0  0  0  0  0
   21.9377  -14.8253    0.0000 O   0  0  0  0  0  0  0  0  0  0  0  0
   21.0909  -12.8257    0.0000 O   0  0  0  0  0  0  0  0  0  0  0  0
   19.0407  -12.7556    0.0000 N   0  0  0  0  0  0  0  0  0  0  0  0
   18.9893  -11.5337    0.0000 C   0  0  0  0  0  0  0  0  0  0  0  0
   18.1875  -11.5258    0.0000 C   0  0  0  0  0  0  0  0  0  0  0  0
   19.0603   -9.4676    0.0000 C   0  0  0  0  0  0  0  0  0  0  0  0
   20.3695  -10.2388    0.0000 O   0  0  0  0  0  0  0  0  0  0  0  0
   18.8792   -7.9504    0.0000 C   0  0  0  0  0  0  0  0  0  0  0  0
   12.6232  -15.0627    0.0000 C   0  0  0  0  0  0  0  0  0  0  0  0
   12.6232  -16.3927    0.0000 C   0  0  0  0  0  0  0  0  0  0  0  0
   11.4713  -14.3977    0.0000 C   0  0  0  0  0  0  0  0  0  0  0  0
   11.4713  -17.0577    0.0000 C   0  0  0  0  0  0  0  0  0  0  0  0
   10.3195  -15.0627    0.0000 C   0  0  0  0  0  0  0  0  0  0  0  0
   10.3195  -16.3927    0.0000 C   0  0  0  0  0  0  0  0  0  0  0  0
   17.6166  -18.4306    0.0000 N   0  0  0  0  0  0  0  0  0  0  0  0
   15.5754  -15.0306    0.0000 P   0  0  0  0  0  0  0  0  0  0  0  0
   15.6716  -13.2199    0.0000 N   0  0  0  0  0  0  0  0  0  0  0  0
   14.5659  -12.3706    0.0000 C   0  0  0  0  0  0  0  0  0  0  0  0
   16.8253  -12.2264    0.0000 C   0  0  0  0  0  0  0  0  0  0  0  0
   13.5243  -14.4217    0.0000 O   0  0  0  0  0  0  0  0  0  0  0  0
   14.4698  -16.3766    0.0000 O   0  0  0  0  0  0  0  0  0  0  0  0
   16.5208  -16.3446    0.0000 N   0  0  0  0  0  0  0  0  0  0  0  0
   16.6330  -17.5624    0.0000 C   0  0  0  0  0  0  0  0  0  0  0  0
   17.4342  -17.5304    0.0000 C   0  0  0  0  0  0  0  0  0  0  0  0
   16.6651  -19.6295    0.0000 C   0  0  0  0  0  0  0  0  0  0  0  0
   15.3190  -18.9245    0.0000 O   0  0  0  0  0  0  0  0  0  0  0  0
   16.9215  -21.1358    0.0000 C   0  0  0  0  0  0  0  0  0  0  0  0
   18.6988   -6.4388    0.0000 F   0  0  0  0  0  0  0  0  0  0  0  0
   20.3908   -7.7700    0.0000 F   0  0  0  0  0  0  0  0  0  0  0  0
   17.3677   -8.1308    0.0000 F   0  0  0  0  0  0  0  0  0  0  0  0
   17.1769  -22.6365    0.0000 F   0  0  0  0  0  0  0  0  0  0  0  0
   15.4207  -21.3912    0.0000 F   0  0  0  0  0  0  0  0  0  0  0  0
   18.4222  -20.8803    0.0000 F   0  0  0  0  0  0  0  0  0  0  0  0
   23.9356  -15.9823    0.0000 H   0  0  0  0  0  0  0  0  0  0  0  0
   24.1709  -11.2642    0.0000 H   0  0  0  0  0  0  0  0  0  0  0  0
   26.0374  -14.9047    0.0000 H   0  0  0  0  0  0  0  0  0  0  0  0
   26.1551  -12.5456    0.0000 H   0  0  0  0  0  0  0  0  0  0  0  0
   17.1055  -10.3405    0.0000 H   0  0  0  0  0  0  0  0  0  0  0  0
   20.6025  -17.8745    0.0000 H   0  0  0  0  0  0  0  0  0  0  0  0
   21.8032  -16.4628    0.0000 H   0  0  0  0  0  0  0  0  0  0  0  0
   21.6103  -17.5153    0.0000 H   0  0  0  0  0  0  0  0  0  0  0  0
   17.5404  -16.4506    0.0000 H   0  0  0  0  0  0  0  0  0  0  0  0
   18.6783  -17.9134    0.0000 H   0  0  0  0  0  0  0  0  0  0  0  0
   17.6870  -17.5105    0.0000 H   0  0  0  0  0  0  0  0  0  0  0  0
   18.0687  -13.0648    0.0000 H   0  0  0  0  0  0  0  0  0  0  0  0
   19.7336  -10.7650    0.0000 H   0  0  0  0  0  0  0  0  0  0  0  0
   18.5767  -10.5464    0.0000 H   0  0  0  0  0  0  0  0  0  0  0  0
   17.4857  -12.3335    0.0000 H   0  0  0  0  0  0  0  0  0  0  0  0
   17.1600  -11.2274    0.0000 H   0  0  0  0  0  0  0  0  0  0  0  0
   11.4713  -13.3657    0.0000 H   0  0  0  0  0  0  0  0  0  0  0  0
   11.4713  -18.0897    0.0000 H   0  0  0  0  0  0  0  0  0  0  0  0
    9.4258  -14.5467    0.0000 H   0  0  0  0  0  0  0  0  0  0  0  0
    9.4258  -16.9087    0.0000 H   0  0  0  0  0  0  0  0  0  0  0  0
   18.5739  -18.6603    0.0000 H   0  0  0  0  0  0  0  0  0  0  0  0
   14.7061  -11.3098    0.0000 H   0  0  0  0  0  0  0  0  0  0  0  0
   13.5771  -12.7796    0.0000 H   0  0  0  0  0  0  0  0  0  0  0  0
   13.7173  -11.7188    0.0000 H   0  0  0  0  0  0  0  0  0  0  0  0
   17.8354  -12.5795    0.0000 H   0  0  0  0  0  0  0  0  0  0  0  0
   16.6260  -11.1751    0.0000 H   0  0  0  0  0  0  0  0  0  0  0  0
   17.6361  -11.5282    0.0000 H   0  0  0  0  0  0  0  0  0  0  0  0
   17.4762  -15.9874    0.0000 H   0  0  0  0  0  0  0  0  0  0  0  0
   15.9279  -18.3672    0.0000 H   0  0  0  0  0  0  0  0  0  0  0  0
   17.0942  -18.5279    0.0000 H   0  0  0  0  0  0  0  0  0  0  0  0
   18.0949  -16.6887    0.0000 H   0  0  0  0  0  0  0  0  0  0  0  0
   18.4753  -17.7772    0.0000 H   0  0  0  0  0  0  0  0  0  0  0  0
  1  2  1  0  0  0  0
  1  3  2  0  0  0  0
  1 12  1  0  0  0  0
  2  4  2  0  0  0  0
  3  5  1  0  0  0  0
  3 45  1  0  0  0  0
  4  6  1  0  0  0  0
  4 46  1  0  0  0  0
  5  6  2  0  0  0  0
  5 47  1  0  0  0  0
  6 48  1  0  0  0  0
  7 17  1  0  0  0  0
  7 49  1  0  0  0  0
  8  9  1  0  0  0  0
  8 12  1  0  0  0  0
  8 13  1  0  0  0  0
  8 14  1  0  0  0  0
  8 27  1  0  0  0  0
  9 10  1  0  0  0  0
  9 11  1  0  0  0  0
 10 50  1  0  0  0  0
 10 51  1  0  0  0  0
 10 52  1  0  0  0  0
 11 53  1  0  0  0  0
 11 54  1  0  0  0  0
 11 55  1  0  0  0  0
 13  2  1  0  0  0  0
 14 15  1  0  0  0  0
 14 56  1  0  0  0  0
 15 16  1  0  0  0  0
 15 57  1  0  0  0  0
 15 58  1  0  0  0  0
 16  7  1  0  0  0  0
 16 59  1  0  0  0  0
 16 60  1  0  0  0  0
 17 18  2  0  0  0  0
 17 19  1  0  0  0  0
 19 39  1  0  0  0  0
 19 40  1  0  0  0  0
 19 41  1  0  0  0  0
 20 21  1  0  0  0  0
 20 22  2  0  0  0  0
 20 31  1  0  0  0  0
 21 23  2  0  0  0  0
 22 24  1  0  0  0  0
 22 61  1  0  0  0  0
 23 25  1  0  0  0  0
 23 62  1  0  0  0  0
 24 25  2  0  0  0  0
 24 63  1  0  0  0  0
 25 64  1  0  0  0  0
 26 36  1  0  0  0  0
 26 65  1  0  0  0  0
 27 28  1  0  0  0  0
 27 31  1  0  0  0  0
 27 32  1  0  0  0  0
 27 33  1  0  0  0  0
 28 29  1  0  0  0  0
 28 30  1  0  0  0  0
 29 66  1  0  0  0  0
 29 67  1  0  0  0  0
 29 68  1  0  0  0  0
 30 69  1  0  0  0  0
 30 70  1  0  0  0  0
 30 71  1  0  0  0  0
 32 21  1  0  0  0  0
 33 34  1  0  0  0  0
 33 72  1  0  0  0  0
 34 35  1  0  0  0  0
 34 73  1  0  0  0  0
 34 74  1  0  0  0  0
 35 26  1  0  0  0  0
 35 75  1  0  0  0  0
 35 76  1  0  0  0  0
 36 37  2  0  0  0  0
 36 38  1  0  0  0  0
 38 42  1  0  0  0  0
 38 43  1  0  0  0  0
 38 44  1  0  0  0  0
M  END
> <NMREDATA_VERSION>
1.1

> <NMREDATA_LEVEL>
0

> <NMREDATA_FORMULA>
C24H32F6N6O6P2

> <NMREDATA_SMILES>
CN(P1(NCCNC(=O)C(F)(F)F)(Oc2c(O1)cccc2)P1(NCCNC(=O)C(F)(F)F)(Oc2c(O1)cccc2)N(C)C)C

> <NMREDATA_ASSIGNMENT>
P8, -51.00, 8
P27, -51.00, 27

> <NMREDATA_1D_31P>
-51.00, L=P8
-51.00, L=P27

$$$$
