
 OpenBabel08102311332D

 74 79  0  0  0  0  0  0  0  0999 V2000
    8.6832   -7.2216    0.0000 P   0  0  0  0  0  0  0  0  0  0  0  0
    8.1418   -6.2838    0.0000 S   0  0  0  0  0  0  0  0  0  0  0  0
    7.7454   -7.7631    0.0000 C   0  0  0  0  0  0  0  0  0  0  0  0
    9.6211   -6.6802    0.0000 C   0  0  0  0  0  0  0  0  0  0  0  0
    9.2247   -8.1594    0.0000 C   0  0  0  0  0  0  0  0  0  0  0  0
    8.6832   -9.0973    0.0000 P   0  0  0  0  0  0  0  0  0  0  0  0
    7.7769   -8.5546    0.0000 C   0  0  0  0  0  0  0  0  0  0  0  0
    8.1068   -9.9892    0.0000 S   0  0  0  0  0  0  0  0  0  0  0  0
    9.6211   -9.6387    0.0000 C   0  0  0  0  0  0  0  0  0  0  0  0
   10.3076   -8.1594    0.0000 P   0  0  0  0  0  0  0  0  0  0  0  0
   11.3905   -8.1594    0.0000 S   0  0  0  0  0  0  0  0  0  0  0  0
   10.3076   -9.2423    0.0000 C   0  0  0  0  0  0  0  0  0  0  0  0
   10.3076   -7.0765    0.0000 C   0  0  0  0  0  0  0  0  0  0  0  0
    7.7454   -8.8460    0.0000 C   0  0  0  0  0  0  0  0  0  0  0  0
    6.8076   -9.3874    0.0000 C   0  0  0  0  0  0  0  0  0  0  0  0
    5.8698   -8.8460    0.0000 C   0  0  0  0  0  0  0  0  0  0  0  0
    5.8698   -7.7631    0.0000 C   0  0  0  0  0  0  0  0  0  0  0  0
    6.8076   -7.2216    0.0000 C   0  0  0  0  0  0  0  0  0  0  0  0
    9.6210   -5.5973    0.0000 C   0  0  0  0  0  0  0  0  0  0  0  0
   10.5589   -5.0558    0.0000 C   0  0  0  0  0  0  0  0  0  0  0  0
   11.4967   -5.5973    0.0000 C   0  0  0  0  0  0  0  0  0  0  0  0
   11.4967   -6.6802    0.0000 C   0  0  0  0  0  0  0  0  0  0  0  0
   10.5589   -7.2216    0.0000 C   0  0  0  0  0  0  0  0  0  0  0  0
    6.8560   -9.0670    0.0000 C   0  0  0  0  0  0  0  0  0  0  0  0
    5.9518   -8.5256    0.0000 C   0  0  0  0  0  0  0  0  0  0  0  0
    5.9685   -7.4719    0.0000 C   0  0  0  0  0  0  0  0  0  0  0  0
    6.8894   -6.9596    0.0000 C   0  0  0  0  0  0  0  0  0  0  0  0
    7.7936   -7.5009    0.0000 C   0  0  0  0  0  0  0  0  0  0  0  0
   10.5589   -9.0972    0.0000 C   0  0  0  0  0  0  0  0  0  0  0  0
   11.4967   -9.6387    0.0000 C   0  0  0  0  0  0  0  0  0  0  0  0
   11.4967  -10.7216    0.0000 C   0  0  0  0  0  0  0  0  0  0  0  0
   10.5589  -11.2630    0.0000 C   0  0  0  0  0  0  0  0  0  0  0  0
    9.6211  -10.7216    0.0000 C   0  0  0  0  0  0  0  0  0  0  0  0
   11.2454   -9.7838    0.0000 C   0  0  0  0  0  0  0  0  0  0  0  0
   11.2454  -10.8667    0.0000 C   0  0  0  0  0  0  0  0  0  0  0  0
   10.3076  -11.4081    0.0000 C   0  0  0  0  0  0  0  0  0  0  0  0
    9.3698  -10.8667    0.0000 C   0  0  0  0  0  0  0  0  0  0  0  0
    9.3698   -9.7838    0.0000 C   0  0  0  0  0  0  0  0  0  0  0  0
    9.3698   -6.5351    0.0000 C   0  0  0  0  0  0  0  0  0  0  0  0
    9.3698   -5.4522    0.0000 C   0  0  0  0  0  0  0  0  0  0  0  0
   10.3076   -4.9107    0.0000 C   0  0  0  0  0  0  0  0  0  0  0  0
   11.2454   -5.4522    0.0000 C   0  0  0  0  0  0  0  0  0  0  0  0
   11.2454   -6.5351    0.0000 C   0  0  0  0  0  0  0  0  0  0  0  0
    9.7597   -9.0860    0.0000 H   0  0  0  0  0  0  0  0  0  0  0  0
    8.6391   -9.3620    0.0000 H   0  0  0  0  0  0  0  0  0  0  0  0
    6.8076  -10.4194    0.0000 H   0  0  0  0  0  0  0  0  0  0  0  0
    4.9761   -9.3620    0.0000 H   0  0  0  0  0  0  0  0  0  0  0  0
    4.9760   -7.2471    0.0000 H   0  0  0  0  0  0  0  0  0  0  0  0
    6.8076   -6.1896    0.0000 H   0  0  0  0  0  0  0  0  0  0  0  0
    8.7272   -5.0813    0.0000 H   0  0  0  0  0  0  0  0  0  0  0  0
   10.5589   -4.0238    0.0000 H   0  0  0  0  0  0  0  0  0  0  0  0
   12.3905   -5.0813    0.0000 H   0  0  0  0  0  0  0  0  0  0  0  0
   12.3904   -7.1962    0.0000 H   0  0  0  0  0  0  0  0  0  0  0  0
   10.5589   -8.2536    0.0000 H   0  0  0  0  0  0  0  0  0  0  0  0
    6.8396  -10.0989    0.0000 H   0  0  0  0  0  0  0  0  0  0  0  0
    5.0500   -9.0273    0.0000 H   0  0  0  0  0  0  0  0  0  0  0  0
    5.0831   -6.9418    0.0000 H   0  0  0  0  0  0  0  0  0  0  0  0
    6.9058   -5.9277    0.0000 H   0  0  0  0  0  0  0  0  0  0  0  0
    8.6954   -6.9991    0.0000 H   0  0  0  0  0  0  0  0  0  0  0  0
   10.5589   -8.0652    0.0000 H   0  0  0  0  0  0  0  0  0  0  0  0
   12.3905   -9.1227    0.0000 H   0  0  0  0  0  0  0  0  0  0  0  0
   12.3904  -11.2376    0.0000 H   0  0  0  0  0  0  0  0  0  0  0  0
   10.5589  -12.2950    0.0000 H   0  0  0  0  0  0  0  0  0  0  0  0
    8.7274  -11.2376    0.0000 H   0  0  0  0  0  0  0  0  0  0  0  0
   12.1392   -9.2678    0.0000 H   0  0  0  0  0  0  0  0  0  0  0  0
   12.1391  -11.3827    0.0000 H   0  0  0  0  0  0  0  0  0  0  0  0
   10.3076  -12.4401    0.0000 H   0  0  0  0  0  0  0  0  0  0  0  0
    8.4761  -11.3827    0.0000 H   0  0  0  0  0  0  0  0  0  0  0  0
    8.4760   -9.2678    0.0000 H   0  0  0  0  0  0  0  0  0  0  0  0
    8.4761   -7.0511    0.0000 H   0  0  0  0  0  0  0  0  0  0  0  0
    8.4760   -4.9362    0.0000 H   0  0  0  0  0  0  0  0  0  0  0  0
   10.3076   -3.8787    0.0000 H   0  0  0  0  0  0  0  0  0  0  0  0
   12.1392   -4.9362    0.0000 H   0  0  0  0  0  0  0  0  0  0  0  0
   12.1391   -7.0511    0.0000 H   0  0  0  0  0  0  0  0  0  0  0  0
  1  2  2  0  0  0  0
  1  3  1  0  0  0  0
  1  4  1  0  0  0  0
  1  5  1  0  0  0  0
  3 14  2  0  0  0  0
  3 18  1  0  0  0  0
  4 19  2  0  0  0  0
  4 23  1  0  0  0  0
  5  6  1  0  0  0  0
  5 10  1  0  0  0  0
  5 44  1  0  0  0  0
  6  7  1  0  0  0  0
  6  8  2  0  0  0  0
  6  9  1  0  0  0  0
  7 24  2  0  0  0  0
  7 28  1  0  0  0  0
  9 29  2  0  0  0  0
  9 33  1  0  0  0  0
 10 11  2  0  0  0  0
 10 12  1  0  0  0  0
 10 13  1  0  0  0  0
 12 34  2  0  0  0  0
 12 38  1  0  0  0  0
 13 39  2  0  0  0  0
 13 43  1  0  0  0  0
 14 15  1  0  0  0  0
 14 45  1  0  0  0  0
 15 16  2  0  0  0  0
 15 46  1  0  0  0  0
 16 17  1  0  0  0  0
 16 47  1  0  0  0  0
 17 18  2  0  0  0  0
 17 48  1  0  0  0  0
 18 49  1  0  0  0  0
 19 20  1  0  0  0  0
 19 50  1  0  0  0  0
 20 21  2  0  0  0  0
 20 51  1  0  0  0  0
 21 22  1  0  0  0  0
 21 52  1  0  0  0  0
 22 23  2  0  0  0  0
 22 53  1  0  0  0  0
 23 54  1  0  0  0  0
 24 25  1  0  0  0  0
 24 55  1  0  0  0  0
 25 26  2  0  0  0  0
 25 56  1  0  0  0  0
 26 27  1  0  0  0  0
 26 57  1  0  0  0  0
 27 28  2  0  0  0  0
 27 58  1  0  0  0  0
 28 59  1  0  0  0  0
 29 30  1  0  0  0  0
 29 60  1  0  0  0  0
 30 31  2  0  0  0  0
 30 61  1  0  0  0  0
 31 32  1  0  0  0  0
 31 62  1  0  0  0  0
 32 33  2  0  0  0  0
 32 63  1  0  0  0  0
 33 64  1  0  0  0  0
 34 35  1  0  0  0  0
 34 65  1  0  0  0  0
 35 36  2  0  0  0  0
 35 66  1  0  0  0  0
 36 37  1  0  0  0  0
 36 67  1  0  0  0  0
 37 38  2  0  0  0  0
 37 68  1  0  0  0  0
 38 69  1  0  0  0  0
 39 40  1  0  0  0  0
 39 70  1  0  0  0  0
 40 41  2  0  0  0  0
 40 71  1  0  0  0  0
 41 42  1  0  0  0  0
 41 72  1  0  0  0  0
 42 43  2  0  0  0  0
 42 73  1  0  0  0  0
 43 74  1  0  0  0  0
M  END
> <NMREDATA_VERSION>
1.1

> <NMREDATA_LEVEL>
0

> <NMREDATA_FORMULA>
C37H31P3S3

> <NMREDATA_SMILES>
S=P(C(P(=S)(c1ccccc1)c1ccccc1)P(=S)(c1ccccc1)c1ccccc1)(c1ccccc1)c1ccccc1

> <NMREDATA_ASSIGNMENT>
P1, 41.90, 1
P6, 41.90, 6
P10, 41.90, 10

> <NMREDATA_1D_31P>
41.90, L=P1
41.90, L=P6
41.90, L=P10

$$$$
