
 OpenBabel08102311332D

 20 20  0  0  0  0  0  0  0  0999 V2000
    6.9064  -11.9219    0.0000 P   0  0  3  0  0  0  0  0  0  0  0  0
    8.6690  -10.4637    0.0000 S   0  0  0  0  0  0  0  0  0  0  0  0
    8.5088  -13.6205    0.0000 S   0  0  0  0  0  0  0  0  0  0  0  0
   10.2714  -11.9700    0.0000 P   0  0  3  0  0  0  0  0  0  0  0  0
   11.1688  -10.2234    0.0000 S   0  0  0  0  0  0  0  0  0  0  0  0
    5.7046  -13.6205    0.0000 S   0  0  0  0  0  0  0  0  0  0  0  0
    5.7046  -10.3676    0.0000 C   0  0  0  0  0  0  0  0  0  0  0  0
   11.8258  -13.0276    0.0000 C   0  0  0  0  0  0  0  0  0  0  0  0
   11.6803  -14.9932    0.0000 C   0  0  0  0  0  0  0  0  0  0  0  0
    6.4521   -8.5439    0.0000 C   0  0  0  0  0  0  0  0  0  0  0  0
    4.6443  -10.5112    0.0000 H   0  0  0  0  0  0  0  0  0  0  0  0
    5.0501   -9.5211    0.0000 H   0  0  0  0  0  0  0  0  0  0  0  0
   12.7894  -12.5624    0.0000 H   0  0  0  0  0  0  0  0  0  0  0  0
   12.7104  -13.6295    0.0000 H   0  0  0  0  0  0  0  0  0  0  0  0
   10.7167  -15.4583    0.0000 H   0  0  0  0  0  0  0  0  0  0  0  0
   12.5649  -15.5951    0.0000 H   0  0  0  0  0  0  0  0  0  0  0  0
   11.6013  -16.0603    0.0000 H   0  0  0  0  0  0  0  0  0  0  0  0
    7.5124   -8.4003    0.0000 H   0  0  0  0  0  0  0  0  0  0  0  0
    5.7976   -7.6974    0.0000 H   0  0  0  0  0  0  0  0  0  0  0  0
    6.8579   -7.5538    0.0000 H   0  0  0  0  0  0  0  0  0  0  0  0
  1  2  1  0  0  0  0
  1  3  1  0  0  0  0
  1  6  2  0  0  0  0
  1  7  1  0  0  0  0
  2  4  1  0  0  0  0
  3  4  1  0  0  0  0
  4  5  2  0  0  0  0
  4  8  1  0  0  0  0
  7 10  1  0  0  0  0
  7 11  1  0  0  0  0
  7 12  1  0  0  0  0
  8  9  1  0  0  0  0
  8 13  1  0  0  0  0
  8 14  1  0  0  0  0
  9 15  1  0  0  0  0
  9 16  1  0  0  0  0
  9 17  1  0  0  0  0
 10 18  1  0  0  0  0
 10 19  1  0  0  0  0
 10 20  1  0  0  0  0
M  END
> <NMREDATA_VERSION>
1.1

> <NMREDATA_LEVEL>
0

> <NMREDATA_FORMULA>
C4H10P2S4

> <NMREDATA_SMILES>
CCP1(=S)SP(=S)(S1)CC

> <NMREDATA_ASSIGNMENT>
P1, 36.00, 1
P4, 36.00, 4

> <NMREDATA_1D_31P>
36.00, L=P1
36.00, L=P4

$$$$
