
 OpenBabel08102311322D

 56 58  0  0  0  0  0  0  0  0999 V2000
   10.7182  -13.1798    0.0000 C    0  0  0  0  0  0  0  0  0  0  0  0
   10.7182  -14.5098    0.0000 C    0  0  0  0  0  0  0  0  0  0  0  0
    9.5663  -12.5148    0.0000 P    0  3  0  0  0  0  0  0  0  0  0  0
    9.5663  -15.1748    0.0000 P    0  3  0  0  0  0  0  0  0  0  0  0
    8.4145  -13.1798    0.0000 C    0  0  0  0  0  0  0  0  0  0  0  0
    8.4145  -14.5098    0.0000 C    0  0  0  0  0  0  0  0  0  0  0  0
    7.7717  -11.0246    0.0000 C    0  0  0  0  0  0  0  0  0  0  0  0
   10.6240  -11.1528    0.0000 C    0  0  0  0  0  0  0  0  0  0  0  0
    8.2845  -16.2965    0.0000 C    0  0  0  0  0  0  0  0  0  0  0  0
   11.3130  -16.6971    0.0000 C    0  0  0  0  0  0  0  0  0  0  0  0
   11.7759   -9.1578    0.0000 C    0  0  0  0  0  0  0  0  0  0  0  0
   11.7759  -10.4878    0.0000 C    0  0  0  0  0  0  0  0  0  0  0  0
   10.6240   -8.4928    0.0000 C    0  0  0  0  0  0  0  0  0  0  0  0
    9.4722   -9.1578    0.0000 C    0  0  0  0  0  0  0  0  0  0  0  0
    9.4722  -10.4878    0.0000 C    0  0  0  0  0  0  0  0  0  0  0  0
    8.9236   -9.0296    0.0000 C    0  0  0  0  0  0  0  0  0  0  0  0
    8.9236  -10.3596    0.0000 C    0  0  0  0  0  0  0  0  0  0  0  0
    7.7717   -8.3646    0.0000 C    0  0  0  0  0  0  0  0  0  0  0  0
    6.6199   -9.0296    0.0000 C    0  0  0  0  0  0  0  0  0  0  0  0
    6.6199  -10.3596    0.0000 C    0  0  0  0  0  0  0  0  0  0  0  0
    9.4364  -16.9615    0.0000 C    0  0  0  0  0  0  0  0  0  0  0  0
    9.4364  -18.2915    0.0000 C    0  0  0  0  0  0  0  0  0  0  0  0
    8.2845  -18.9565    0.0000 C    0  0  0  0  0  0  0  0  0  0  0  0
    7.1327  -16.9615    0.0000 C    0  0  0  0  0  0  0  0  0  0  0  0
    7.1327  -18.2915    0.0000 C    0  0  0  0  0  0  0  0  0  0  0  0
   12.4649  -17.3621    0.0000 C    0  0  0  0  0  0  0  0  0  0  0  0
   12.4649  -18.6921    0.0000 C    0  0  0  0  0  0  0  0  0  0  0  0
   11.3130  -19.3571    0.0000 C    0  0  0  0  0  0  0  0  0  0  0  0
   10.1612  -17.3621    0.0000 C    0  0  0  0  0  0  0  0  0  0  0  0
   10.1612  -18.6921    0.0000 C    0  0  0  0  0  0  0  0  0  0  0  0
   16.9535  -13.7807    0.0000 Cl   0  5  0  0  0  0  0  0  0  0  0  0
   16.8894  -16.2645    0.0000 Cl   0  5  0  0  0  0  0  0  0  0  0  0
   11.6119  -12.6638    0.0000 H    0  0  0  0  0  0  0  0  0  0  0  0
   11.6119  -15.0258    0.0000 H    0  0  0  0  0  0  0  0  0  0  0  0
    7.5208  -12.6638    0.0000 H    0  0  0  0  0  0  0  0  0  0  0  0
    7.5208  -15.0258    0.0000 H    0  0  0  0  0  0  0  0  0  0  0  0
   12.6696   -8.6418    0.0000 H    0  0  0  0  0  0  0  0  0  0  0  0
   12.6696  -11.0038    0.0000 H    0  0  0  0  0  0  0  0  0  0  0  0
   10.6240   -7.4608    0.0000 H    0  0  0  0  0  0  0  0  0  0  0  0
    8.5785   -8.6418    0.0000 H    0  0  0  0  0  0  0  0  0  0  0  0
    8.5785  -11.0038    0.0000 H    0  0  0  0  0  0  0  0  0  0  0  0
    9.8173   -8.5136    0.0000 H    0  0  0  0  0  0  0  0  0  0  0  0
    9.8173  -10.8756    0.0000 H    0  0  0  0  0  0  0  0  0  0  0  0
    7.7717   -7.3326    0.0000 H    0  0  0  0  0  0  0  0  0  0  0  0
    5.7262   -8.5136    0.0000 H    0  0  0  0  0  0  0  0  0  0  0  0
    5.7262  -10.8756    0.0000 H    0  0  0  0  0  0  0  0  0  0  0  0
   10.3301  -16.4455    0.0000 H    0  0  0  0  0  0  0  0  0  0  0  0
   10.3301  -18.8075    0.0000 H    0  0  0  0  0  0  0  0  0  0  0  0
    8.2845  -19.9885    0.0000 H    0  0  0  0  0  0  0  0  0  0  0  0
    6.2390  -16.4455    0.0000 H    0  0  0  0  0  0  0  0  0  0  0  0
    6.2390  -18.8075    0.0000 H    0  0  0  0  0  0  0  0  0  0  0  0
   13.3586  -16.8461    0.0000 H    0  0  0  0  0  0  0  0  0  0  0  0
   13.3586  -19.2081    0.0000 H    0  0  0  0  0  0  0  0  0  0  0  0
   11.3130  -20.3891    0.0000 H    0  0  0  0  0  0  0  0  0  0  0  0
    9.2675  -16.8461    0.0000 H    0  0  0  0  0  0  0  0  0  0  0  0
    9.2675  -19.2081    0.0000 H    0  0  0  0  0  0  0  0  0  0  0  0
  1  2  2  0  0  0  0
  1  3  1  0  0  0  0
  1 33  1  0  0  0  0
  2  4  1  0  0  0  0
  2 34  1  0  0  0  0
  3  5  1  0  0  0  0
  3  7  1  0  0  0  0
  3  8  1  0  0  0  0
  4  6  1  0  0  0  0
  4  9  1  0  0  0  0
  4 10  1  0  0  0  0
  5  6  2  0  0  0  0
  5 35  1  0  0  0  0
  6 36  1  0  0  0  0
  7 20  1  0  0  0  0
  8 15  1  0  0  0  0
  9 24  1  0  0  0  0
 10 29  1  0  0  0  0
 11 12  1  0  0  0  0
 11 13  2  0  0  0  0
 11 37  1  0  0  0  0
 12  8  2  0  0  0  0
 12 38  1  0  0  0  0
 13 14  1  0  0  0  0
 13 39  1  0  0  0  0
 14 15  2  0  0  0  0
 14 40  1  0  0  0  0
 15 41  1  0  0  0  0
 16 17  1  0  0  0  0
 16 18  2  0  0  0  0
 16 42  1  0  0  0  0
 17  7  2  0  0  0  0
 17 43  1  0  0  0  0
 18 19  1  0  0  0  0
 18 44  1  0  0  0  0
 19 20  2  0  0  0  0
 19 45  1  0  0  0  0
 20 46  1  0  0  0  0
 21 22  1  0  0  0  0
 21  9  2  0  0  0  0
 21 47  1  0  0  0  0
 22 23  2  0  0  0  0
 22 48  1  0  0  0  0
 23 25  1  0  0  0  0
 23 49  1  0  0  0  0
 24 25  2  0  0  0  0
 24 50  1  0  0  0  0
 25 51  1  0  0  0  0
 26 27  1  0  0  0  0
 26 10  2  0  0  0  0
 26 52  1  0  0  0  0
 27 28  2  0  0  0  0
 27 53  1  0  0  0  0
 28 30  1  0  0  0  0
 28 54  1  0  0  0  0
 29 30  2  0  0  0  0
 29 55  1  0  0  0  0
 30 56  1  0  0  0  0
M  END
> <NMREDATA_VERSION>
1.1

> <NMREDATA_LEVEL>
0

> <NMREDATA_FORMULA>
C28H28Cl2P2

> <NMREDATA_SMILES>
c1ccc(cc1)[P+]1(C=C[P+](C=C1)(c1ccccc1)c1ccccc1)c1ccccc1.[Cl-].[Cl-]

> <NMREDATA_ASSIGNMENT>
P3, -3.50, 3
P4, -3.50, 4

> <NMREDATA_1D_31P>
-3.50, L=P3
-3.50, L=P4

$$$$
