
 OpenBabel08102311322D

 23 23  0  0  0  0  0  0  0  0999 V2000
    7.4672   -9.2619    0.0000 C    0  0  0  0  0  0  0  0  0  0  0  0
    7.2108  -12.2745    0.0000 P    0  0  3  0  0  0  0  0  0  0  0  0
    9.9670   -9.4222    0.0000 P    0  0  3  0  0  0  0  0  0  0  0  0
   10.0151  -12.5148    0.0000 N    0  0  0  0  0  0  0  0  0  0  0  0
    9.7106   -7.5634    0.0000 O    0  0  0  0  0  0  0  0  0  0  0  0
   11.4733   -9.6625    0.0000 Cl   0  0  0  0  0  0  0  0  0  0  0  0
    7.0666  -13.8288    0.0000 O    0  0  0  0  0  0  0  0  0  0  0  0
    5.9610  -11.9219    0.0000 Cl   0  0  0  0  0  0  0  0  0  0  0  0
   11.2649  -13.5243    0.0000 C    0  0  0  0  0  0  0  0  0  0  0  0
   11.0237  -15.0598    0.0000 C    0  0  0  0  0  0  0  0  0  0  0  0
   12.7153  -12.9655    0.0000 C    0  0  0  0  0  0  0  0  0  0  0  0
   11.5062  -11.9888    0.0000 C    0  0  0  0  0  0  0  0  0  0  0  0
    6.7690   -8.4511    0.0000 H    0  0  0  0  0  0  0  0  0  0  0  0
    7.9441   -8.3041    0.0000 H    0  0  0  0  0  0  0  0  0  0  0  0
   10.0253  -15.4445    0.0000 H    0  0  0  0  0  0  0  0  0  0  0  0
   11.8561  -15.7321    0.0000 H    0  0  0  0  0  0  0  0  0  0  0  0
   10.8577  -16.1168    0.0000 H    0  0  0  0  0  0  0  0  0  0  0  0
   13.5477  -13.6379    0.0000 H    0  0  0  0  0  0  0  0  0  0  0  0
   12.8814  -11.9085    0.0000 H    0  0  0  0  0  0  0  0  0  0  0  0
   13.7138  -12.5808    0.0000 H    0  0  0  0  0  0  0  0  0  0  0  0
   12.5047  -11.6041    0.0000 H    0  0  0  0  0  0  0  0  0  0  0  0
   10.6738  -11.3164    0.0000 H    0  0  0  0  0  0  0  0  0  0  0  0
   11.6723  -10.9318    0.0000 H    0  0  0  0  0  0  0  0  0  0  0  0
  1  2  1  0  0  0  0
  1  3  1  0  0  0  0
  1 13  1  0  0  0  0
  1 14  1  0  0  0  0
  2  4  1  0  0  0  0
  2  7  2  0  0  0  0
  2  8  1  0  0  0  0
  3  4  1  0  0  0  0
  3  5  2  0  0  0  0
  3  6  1  0  0  0  0
  4  9  1  0  0  0  0
  9 10  1  0  0  0  0
  9 11  1  0  0  0  0
  9 12  1  0  0  0  0
 10 15  1  0  0  0  0
 10 16  1  0  0  0  0
 10 17  1  0  0  0  0
 11 18  1  0  0  0  0
 11 19  1  0  0  0  0
 11 20  1  0  0  0  0
 12 21  1  0  0  0  0
 12 22  1  0  0  0  0
 12 23  1  0  0  0  0
M  END
> <NMREDATA_VERSION>
1.1

> <NMREDATA_LEVEL>
0

> <NMREDATA_FORMULA>
C5H11Cl2NO2P2

> <NMREDATA_SMILES>
CC(N1P(=O)(Cl)CP1(=O)Cl)(C)C

> <NMREDATA_ASSIGNMENT>
P2, 6.10, 2
P3, 6.10, 3

> <NMREDATA_1D_31P>
6.10, L=P2
6.10, L=P3

$$$$
