
 OpenBabel08102311322D

 38 37  0  0  0  0  0  0  0  0999 V2000
    7.8678   -7.9159    0.0000 P   0  0  0  0  0  0  0  0  0  0  0  0
    8.4127   -4.4066    0.0000 O   0  0  0  0  0  0  0  0  0  0  0  0
    5.1598   -6.4096    0.0000 O   0  0  0  0  0  0  0  0  0  0  0  0
    6.3616   -9.0216    0.0000 O   0  0  0  0  0  0  0  0  0  0  0  0
    4.4547   -4.4547    0.0000 C   0  0  0  0  0  0  0  0  0  0  0  0
    4.9514   -9.3100    0.0000 C   0  0  0  0  0  0  0  0  0  0  0  0
    9.3581   -8.7652    0.0000 S   0  0  0  0  0  0  0  0  0  0  0  0
   10.9605   -8.7171    0.0000 S   0  0  0  0  0  0  0  0  0  0  0  0
   13.3641   -8.4127    0.0000 P   0  0  0  0  0  0  0  0  0  0  0  0
   12.9154   -4.6630    0.0000 O   0  0  0  0  0  0  0  0  0  0  0  0
   14.6300   -8.4607    0.0000 O   0  0  0  0  0  0  0  0  0  0  0  0
   14.4698  -11.6175    0.0000 O   0  0  0  0  0  0  0  0  0  0  0  0
   17.0336   -6.7141    0.0000 C   0  0  0  0  0  0  0  0  0  0  0  0
   13.0276  -13.1718    0.0000 C   0  0  0  0  0  0  0  0  0  0  0  0
    3.9099   -3.0125    0.0000 C   0  0  0  0  0  0  0  0  0  0  0  0
    4.1022  -11.0727    0.0000 C   0  0  0  0  0  0  0  0  0  0  0  0
   18.0752   -5.4642    0.0000 C   0  0  0  0  0  0  0  0  0  0  0  0
   13.5243  -14.9665    0.0000 C   0  0  0  0  0  0  0  0  0  0  0  0
    5.4585   -4.0841    0.0000 H   0  0  0  0  0  0  0  0  0  0  0  0
    4.8988   -3.4812    0.0000 H   0  0  0  0  0  0  0  0  0  0  0  0
    4.2939   -8.4659    0.0000 H   0  0  0  0  0  0  0  0  0  0  0  0
    3.8875   -9.4237    0.0000 H   0  0  0  0  0  0  0  0  0  0  0  0
   17.7647   -7.4954    0.0000 H   0  0  0  0  0  0  0  0  0  0  0  0
   18.1032   -6.6834    0.0000 H   0  0  0  0  0  0  0  0  0  0  0  0
   11.9880  -12.9185    0.0000 H   0  0  0  0  0  0  0  0  0  0  0  0
   12.2828  -13.9400    0.0000 H   0  0  0  0  0  0  0  0  0  0  0  0
    4.5877   -2.1846    0.0000 H   0  0  0  0  0  0  0  0  0  0  0  0
    2.8540   -2.8395    0.0000 H   0  0  0  0  0  0  0  0  0  0  0  0
    3.5318   -2.0115    0.0000 H   0  0  0  0  0  0  0  0  0  0  0  0
    3.0352  -11.1525    0.0000 H   0  0  0  0  0  0  0  0  0  0  0  0
    4.7048  -11.9569    0.0000 H   0  0  0  0  0  0  0  0  0  0  0  0
    3.6378  -12.0367    0.0000 H   0  0  0  0  0  0  0  0  0  0  0  0
   19.1296   -5.6464    0.0000 H   0  0  0  0  0  0  0  0  0  0  0  0
   17.7058   -4.4600    0.0000 H   0  0  0  0  0  0  0  0  0  0  0  0
   18.7602   -4.6422    0.0000 H   0  0  0  0  0  0  0  0  0  0  0  0
   12.7739  -15.7293    0.0000 H   0  0  0  0  0  0  0  0  0  0  0  0
   14.5601  -15.2350    0.0000 H   0  0  0  0  0  0  0  0  0  0  0  0
   13.8097  -15.9977    0.0000 H   0  0  0  0  0  0  0  0  0  0  0  0
  1  2  2  0  0  0  0
  1  3  1  0  0  0  0
  1  4  1  0  0  0  0
  1  7  1  0  0  0  0
  3  5  1  0  0  0  0
  4  6  1  0  0  0  0
  5 15  1  0  0  0  0
  5 19  1  0  0  0  0
  5 20  1  0  0  0  0
  6 16  1  0  0  0  0
  6 21  1  0  0  0  0
  6 22  1  0  0  0  0
  7  8  1  0  0  0  0
  8  9  1  0  0  0  0
  9 10  2  0  0  0  0
  9 11  1  0  0  0  0
  9 12  1  0  0  0  0
 11 13  1  0  0  0  0
 12 14  1  0  0  0  0
 13 17  1  0  0  0  0
 13 23  1  0  0  0  0
 13 24  1  0  0  0  0
 14 18  1  0  0  0  0
 14 25  1  0  0  0  0
 14 26  1  0  0  0  0
 15 27  1  0  0  0  0
 15 28  1  0  0  0  0
 15 29  1  0  0  0  0
 16 30  1  0  0  0  0
 16 31  1  0  0  0  0
 16 32  1  0  0  0  0
 17 33  1  0  0  0  0
 17 34  1  0  0  0  0
 17 35  1  0  0  0  0
 18 36  1  0  0  0  0
 18 37  1  0  0  0  0
 18 38  1  0  0  0  0
M  END
> <NMREDATA_VERSION>
1.1

> <NMREDATA_LEVEL>
0

> <NMREDATA_FORMULA>
C8H20O6P2S2

> <NMREDATA_SMILES>
CCOP(=O)(SSP(=O)(OCC)OCC)OCC

> <NMREDATA_ASSIGNMENT>
P1, 20.00, 1
P9, 20.00, 9

> <NMREDATA_1D_31P>
20.00, L=P1
20.00, L=P9

$$$$
