
 OpenBabel08102311312D

 12 11  0  0  0  0  0  0  0  0999 V2000
    9.3496   -7.3949    0.0000 Si   0  0  0  0  0  0  0  0  0  0  0  0
    8.1763   -6.7687    0.0000 P    0  0  0  0  0  0  0  0  0  0  0  0
    9.9758   -6.2216    0.0000 H    0  0  0  0  0  0  0  0  0  0  0  0
    8.7232   -8.5683    0.0000 P    0  0  0  0  0  0  0  0  0  0  0  0
   10.5229   -8.0212    0.0000 C    0  0  0  0  0  0  0  0  0  0  0  0
    8.1303   -5.3895    0.0000 H    0  0  0  0  0  0  0  0  0  0  0  0
    7.0049   -7.4982    0.0000 H    0  0  0  0  0  0  0  0  0  0  0  0
    7.3440   -8.6142    0.0000 H    0  0  0  0  0  0  0  0  0  0  0  0
    9.4526   -9.7398    0.0000 H    0  0  0  0  0  0  0  0  0  0  0  0
   10.5585   -9.0906    0.0000 H    0  0  0  0  0  0  0  0  0  0  0  0
   11.4312   -7.4557    0.0000 H    0  0  0  0  0  0  0  0  0  0  0  0
   11.4668   -8.5251    0.0000 H    0  0  0  0  0  0  0  0  0  0  0  0
  1  2  1  0  0  0  0
  1  3  1  0  0  0  0
  1  4  1  0  0  0  0
  1  5  1  0  0  0  0
  2  6  1  0  0  0  0
  2  7  1  0  0  0  0
  4  8  1  0  0  0  0
  4  9  1  0  0  0  0
  5 10  1  0  0  0  0
  5 11  1  0  0  0  0
  5 12  1  0  0  0  0
M  END
> <NMREDATA_VERSION>
1.1

> <NMREDATA_LEVEL>
0

> <NMREDATA_FORMULA>
CH8P2Si

> <NMREDATA_SMILES>
C[SiH](P)P

> <NMREDATA_ASSIGNMENT>
P2, -231.00, 2
P4, -231.00, 4

> <NMREDATA_1D_31P>
-231.00, L=P2
-231.00, L=P4

$$$$
