
 OpenBabel04012508592D

 58 61  0  0  0  0  0  0  0  0999 V2000
   22.3079  -13.3967    0.0000 P   0  0  0  0  0  0  0  0  0  0  0  0
   22.3079  -12.0676    0.0000 C   0  0  0  0  0  0  0  0  0  0  0  0
   22.3079  -14.7169    0.0000 C   0  0  0  0  0  0  0  0  0  0  0  0
   23.4600  -10.0735    0.0000 C   0  0  0  0  0  0  0  0  0  0  0  0
   23.4600  -11.4030    0.0000 C   0  0  0  0  0  0  0  0  0  0  0  0
   22.3079   -9.4089    0.0000 C   0  0  0  0  0  0  0  0  0  0  0  0
   21.1559  -10.0735    0.0000 C   0  0  0  0  0  0  0  0  0  0  0  0
   21.1559  -11.4030    0.0000 C   0  0  0  0  0  0  0  0  0  0  0  0
   21.1559  -15.3818    0.0000 C   0  0  0  0  0  0  0  0  0  0  0  0
   21.1559  -16.7109    0.0000 C   0  0  0  0  0  0  0  0  0  0  0  0
   22.3079  -17.3755    0.0000 C   0  0  0  0  0  0  0  0  0  0  0  0
   23.4600  -15.3818    0.0000 C   0  0  0  0  0  0  0  0  0  0  0  0
   23.4600  -16.7109    0.0000 C   0  0  0  0  0  0  0  0  0  0  0  0
   23.6371  -13.3967    0.0000 N   0  0  0  0  0  0  0  0  0  0  0  0
   24.3017  -12.2447    0.0000 C   0  0  0  0  0  0  0  0  0  0  0  0
   24.9663  -11.0926    0.0000 N   0  0  0  0  0  0  0  0  0  0  0  0
   18.9937  -14.5310    0.0000 P   0  0  0  0  0  0  0  0  0  0  0  0
   17.6642  -14.5310    0.0000 C   0  0  0  0  0  0  0  0  0  0  0  0
   18.9937  -15.8602    0.0000 C   0  0  0  0  0  0  0  0  0  0  0  0
   15.6705  -13.3967    0.0000 C   0  0  0  0  0  0  0  0  0  0  0  0
   16.9997  -13.3967    0.0000 C   0  0  0  0  0  0  0  0  0  0  0  0
   15.0059  -14.5310    0.0000 C   0  0  0  0  0  0  0  0  0  0  0  0
   15.6705  -15.6831    0.0000 C   0  0  0  0  0  0  0  0  0  0  0  0
   16.9997  -15.6831    0.0000 C   0  0  0  0  0  0  0  0  0  0  0  0
   17.8417  -16.5248    0.0000 C   0  0  0  0  0  0  0  0  0  0  0  0
   17.8417  -17.8543    0.0000 C   0  0  0  0  0  0  0  0  0  0  0  0
   18.9937  -18.5189    0.0000 C   0  0  0  0  0  0  0  0  0  0  0  0
   20.1364  -16.5248    0.0000 C   0  0  0  0  0  0  0  0  0  0  0  0
   20.1364  -17.8543    0.0000 C   0  0  0  0  0  0  0  0  0  0  0  0
   18.9937  -13.2109    0.0000 N   0  0  0  0  0  0  0  0  0  0  0  0
   17.8417  -12.5460    0.0000 C   0  0  0  0  0  0  0  0  0  0  0  0
   16.6896  -11.8814    0.0000 N   0  0  0  0  0  0  0  0  0  0  0  0
   20.3139  -14.5310    0.0000 C   0  0  0  0  0  0  0  0  0  0  0  0
   20.9785  -13.3967    0.0000 C   0  0  0  0  0  0  0  0  0  0  0  0
   24.3536   -9.5573    0.0000 H   0  0  0  0  0  0  0  0  0  0  0  0
   24.3536  -11.9192    0.0000 H   0  0  0  0  0  0  0  0  0  0  0  0
   22.3079   -8.3769    0.0000 H   0  0  0  0  0  0  0  0  0  0  0  0
   20.2622   -9.5574    0.0000 H   0  0  0  0  0  0  0  0  0  0  0  0
   20.2622  -11.9191    0.0000 H   0  0  0  0  0  0  0  0  0  0  0  0
   20.2622  -14.8657    0.0000 H   0  0  0  0  0  0  0  0  0  0  0  0
   20.2622  -17.2270    0.0000 H   0  0  0  0  0  0  0  0  0  0  0  0
   22.3079  -18.4075    0.0000 H   0  0  0  0  0  0  0  0  0  0  0  0
   24.3537  -14.8657    0.0000 H   0  0  0  0  0  0  0  0  0  0  0  0
   24.3536  -17.2271    0.0000 H   0  0  0  0  0  0  0  0  0  0  0  0
   15.1574  -12.5013    0.0000 H   0  0  0  0  0  0  0  0  0  0  0  0
   17.5129  -12.5013    0.0000 H   0  0  0  0  0  0  0  0  0  0  0  0
   13.9739  -14.5275    0.0000 H   0  0  0  0  0  0  0  0  0  0  0  0
   15.1543  -16.5767    0.0000 H   0  0  0  0  0  0  0  0  0  0  0  0
   17.5159  -16.5767    0.0000 H   0  0  0  0  0  0  0  0  0  0  0  0
   16.9480  -16.0087    0.0000 H   0  0  0  0  0  0  0  0  0  0  0  0
   16.9480  -18.3704    0.0000 H   0  0  0  0  0  0  0  0  0  0  0  0
   18.9955  -19.5509    0.0000 H   0  0  0  0  0  0  0  0  0  0  0  0
   21.0310  -16.0102    0.0000 H   0  0  0  0  0  0  0  0  0  0  0  0
   21.0310  -18.3689    0.0000 H   0  0  0  0  0  0  0  0  0  0  0  0
   20.8459  -15.4594    0.0000 H   0  0  0  0  0  0  0  0  0  0  0  0
   21.3839  -14.5361    0.0000 H   0  0  0  0  0  0  0  0  0  0  0  0
   20.4465  -12.4683    0.0000 H   0  0  0  0  0  0  0  0  0  0  0  0
   21.5150  -12.4709    0.0000 H   0  0  0  0  0  0  0  0  0  0  0  0
  1  2  1  0  0  0  0
  1  3  1  0  0  0  0
  1 14  2  0  0  0  0
  1 34  1  0  0  0  0
  2  8  1  0  0  0  0
  3 12  1  0  0  0  0
  4  5  1  0  0  0  0
  4  6  2  0  0  0  0
  4 35  1  0  0  0  0
  5  2  2  0  0  0  0
  5 36  1  0  0  0  0
  6  7  1  0  0  0  0
  6 37  1  0  0  0  0
  7  8  2  0  0  0  0
  7 38  1  0  0  0  0
  8 39  1  0  0  0  0
  9 10  1  0  0  0  0
  9  3  2  0  0  0  0
  9 40  1  0  0  0  0
 10 11  2  0  0  0  0
 10 41  1  0  0  0  0
 11 13  1  0  0  0  0
 11 42  1  0  0  0  0
 12 13  2  0  0  0  0
 12 43  1  0  0  0  0
 13 44  1  0  0  0  0
 14 15  1  0  0  0  0
 15 16  3  0  0  0  0
 17 18  1  0  0  0  0
 17 19  1  0  0  0  0
 17 30  2  0  0  0  0
 17 33  1  0  0  0  0
 18 24  1  0  0  0  0
 19 28  1  0  0  0  0
 20 21  1  0  0  0  0
 20 22  2  0  0  0  0
 20 45  1  0  0  0  0
 21 18  2  0  0  0  0
 21 46  1  0  0  0  0
 22 23  1  0  0  0  0
 22 47  1  0  0  0  0
 23 24  2  0  0  0  0
 23 48  1  0  0  0  0
 24 49  1  0  0  0  0
 25 26  1  0  0  0  0
 25 19  2  0  0  0  0
 25 50  1  0  0  0  0
 26 27  2  0  0  0  0
 26 51  1  0  0  0  0
 27 29  1  0  0  0  0
 27 52  1  0  0  0  0
 28 29  2  0  0  0  0
 28 53  1  0  0  0  0
 29 54  1  0  0  0  0
 30 31  1  0  0  0  0
 31 32  3  0  0  0  0
 33 34  1  0  0  0  0
 33 55  1  0  0  0  0
 33 56  1  0  0  0  0
 34 57  1  0  0  0  0
 34 58  1  0  0  0  0
M  END
> <NMREDATA_VERSION>
1.1

> <NMREDATA_LEVEL>
0

> <NMREDATA_FORMULA>
C28H24N4P2

> <NMREDATA_SMILES>
N#CN=P(c1ccccc1)(c1ccccc1)CCP(=NC#N)(c1ccccc1)c1ccccc1

> <NMREDATA_ASSIGNMENT>
P1, 27.20, 1
P17, 27.20, 17

> <NMREDATA_1D_31P>
27.20, L=P1
27.20, L=P17

$$$$
