
 OpenBabel08102311302D

 26 27  0  0  0  0  0  0  0  0999 V2000
   10.2632  -17.2900    0.0000 S   0  0  0  0  0  0  0  0  0  0  0  0
   11.9700  -14.6743    0.0000 C   0  0  0  0  0  0  0  0  0  0  0  0
   12.8567  -16.5585    0.0000 C   0  0  0  0  0  0  0  0  0  0  0  0
   13.9650  -15.2285    0.0000 S   0  0  0  0  0  0  0  0  0  0  0  0
   15.3615  -16.4698    0.0000 P   0  0  3  0  0  0  0  0  0  0  0  0
   17.0018  -15.5167    0.0000 S   0  0  0  0  0  0  0  0  0  0  0  0
   18.6865  -17.1792    0.0000 C   0  0  0  0  0  0  0  0  0  0  0  0
   10.5292  -22.3440    0.0000 S   0  0  0  0  0  0  0  0  0  0  0  0
   12.2360  -19.7283    0.0000 C   0  0  0  0  0  0  0  0  0  0  0  0
   13.1227  -21.6125    0.0000 C   0  0  0  0  0  0  0  0  0  0  0  0
   14.2310  -20.2825    0.0000 S   0  0  0  0  0  0  0  0  0  0  0  0
   15.6275  -21.5238    0.0000 P   0  0  3  0  0  0  0  0  0  0  0  0
   17.2678  -20.5707    0.0000 S   0  0  0  0  0  0  0  0  0  0  0  0
   18.9525  -22.2332    0.0000 C   0  0  0  0  0  0  0  0  0  0  0  0
   12.0439  -13.6069    0.0000 H   0  0  0  0  0  0  0  0  0  0  0  0
   13.0217  -14.4771    0.0000 H   0  0  0  0  0  0  0  0  0  0  0  0
   12.7207  -17.6198    0.0000 H   0  0  0  0  0  0  0  0  0  0  0  0
   13.8376  -16.9861    0.0000 H   0  0  0  0  0  0  0  0  0  0  0  0
   19.6625  -16.7406    0.0000 H   0  0  0  0  0  0  0  0  0  0  0  0
   19.5998  -17.7366    0.0000 H   0  0  0  0  0  0  0  0  0  0  0  0
   12.3099  -18.6609    0.0000 H   0  0  0  0  0  0  0  0  0  0  0  0
   13.2877  -19.5311    0.0000 H   0  0  0  0  0  0  0  0  0  0  0  0
   12.9867  -22.6738    0.0000 H   0  0  0  0  0  0  0  0  0  0  0  0
   14.1036  -22.0401    0.0000 H   0  0  0  0  0  0  0  0  0  0  0  0
   19.3911  -23.2092    0.0000 H   0  0  0  0  0  0  0  0  0  0  0  0
   19.9925  -21.9815    0.0000 H   0  0  0  0  0  0  0  0  0  0  0  0
  1  2  1  0  0  0  0
  1  8  1  0  0  0  0
  2  3  1  0  0  0  0
  2 15  1  0  0  0  0
  2 16  1  0  0  0  0
  3  4  1  0  0  0  0
  3 17  1  0  0  0  0
  3 18  1  0  0  0  0
  4  5  1  0  0  0  0
  5  6  1  0  0  0  0
  6  7  1  0  0  0  0
  7 14  1  0  0  0  0
  7 19  1  0  0  0  0
  7 20  1  0  0  0  0
  8  9  1  0  0  0  0
  9 10  1  0  0  0  0
  9 21  1  0  0  0  0
  9 22  1  0  0  0  0
 10 11  1  0  0  0  0
 10 23  1  0  0  0  0
 10 24  1  0  0  0  0
 11 12  1  0  0  0  0
 12 13  1  0  0  0  0
 12  5  1  0  0  0  0
 13 14  1  0  0  0  0
 14 25  1  0  0  0  0
 14 26  1  0  0  0  0
M  END
> <NMREDATA_VERSION>
1.1

> <NMREDATA_LEVEL>
0

> <NMREDATA_FORMULA>
C6H12P2S6

> <NMREDATA_SMILES>
C1CSSCCSP2P(S1)SCCS2

> <NMREDATA_ASSIGNMENT>
P5, 110.00, 5
P12, 110.00, 12

> <NMREDATA_1D_31P>
110.00, L=P5
110.00, L=P12

$$$$
