
 OpenBabel08102311332D

 28 30  0  0  0  0  0  0  0  0999 V2000
   14.1653   -7.9159    0.0000 S   0  0  0  0  0  0  0  0  0  0  0  0
   11.2649   -9.4222    0.0000 P   0  0  3  0  0  0  0  0  0  0  0  0
   13.9730  -11.4252    0.0000 S   0  0  0  0  0  0  0  0  0  0  0  0
   16.6330   -9.6145    0.0000 P   0  0  3  0  0  0  0  0  0  0  0  0
   10.7682   -7.7076    0.0000 S   0  0  0  0  0  0  0  0  0  0  0  0
   17.0336  -11.2169    0.0000 S   0  0  0  0  0  0  0  0  0  0  0  0
    8.5824  -11.2890    0.0000 C   0  0  0  0  0  0  0  0  0  0  0  0
    8.8578  -14.5455    0.0000 C   0  0  0  0  0  0  0  0  0  0  0  0
    5.6242   -9.8992    0.0000 C   0  0  0  0  0  0  0  0  0  0  0  0
    6.1750  -16.4123    0.0000 C   0  0  0  0  0  0  0  0  0  0  0  0
    2.9418  -11.7660    0.0000 C   0  0  0  0  0  0  0  0  0  0  0  0
    3.2171  -15.0225    0.0000 C   0  0  0  0  0  0  0  0  0  0  0  0
   19.3184   -7.7517    0.0000 C   0  0  0  0  0  0  0  0  0  0  0  0
   19.0479   -4.4948    0.0000 C   0  0  0  0  0  0  0  0  0  0  0  0
   22.2744   -9.1459    0.0000 C   0  0  0  0  0  0  0  0  0  0  0  0
   21.7335   -2.6320    0.0000 C   0  0  0  0  0  0  0  0  0  0  0  0
   24.9597   -7.2832    0.0000 C   0  0  0  0  0  0  0  0  0  0  0  0
   24.6893   -4.0263    0.0000 C   0  0  0  0  0  0  0  0  0  0  0  0
    9.7918  -14.9844    0.0000 H   0  0  0  0  0  0  0  0  0  0  0  0
    5.5372   -8.8709    0.0000 H   0  0  0  0  0  0  0  0  0  0  0  0
    6.2619  -17.4406    0.0000 H   0  0  0  0  0  0  0  0  0  0  0  0
    2.0078  -11.3271    0.0000 H   0  0  0  0  0  0  0  0  0  0  0  0
    2.3700  -15.6120    0.0000 H   0  0  0  0  0  0  0  0  0  0  0  0
   18.1145   -4.0545    0.0000 H   0  0  0  0  0  0  0  0  0  0  0  0
   22.3598  -10.1744    0.0000 H   0  0  0  0  0  0  0  0  0  0  0  0
   21.6481   -1.6035    0.0000 H   0  0  0  0  0  0  0  0  0  0  0  0
   25.8931   -7.7235    0.0000 H   0  0  0  0  0  0  0  0  0  0  0  0
   25.5373   -3.4381    0.0000 H   0  0  0  0  0  0  0  0  0  0  0  0
  1  2  1  0  0  0  0
  1  4  1  0  0  0  0
  2  3  1  0  0  0  0
  2  5  2  0  0  0  0
  2  7  1  0  0  0  0
  3  4  1  0  0  0  0
  4  6  2  0  0  0  0
  4 13  1  0  0  0  0
  7  8  1  0  0  0  0
  7  9  2  0  0  0  0
  8 10  2  0  0  0  0
  8 19  1  0  0  0  0
  9 11  1  0  0  0  0
  9 20  1  0  0  0  0
 10 12  1  0  0  0  0
 10 21  1  0  0  0  0
 11 12  2  0  0  0  0
 11 22  1  0  0  0  0
 12 23  1  0  0  0  0
 13 14  1  0  0  0  0
 13 15  2  0  0  0  0
 14 16  2  0  0  0  0
 14 24  1  0  0  0  0
 15 17  1  0  0  0  0
 15 25  1  0  0  0  0
 16 18  1  0  0  0  0
 16 26  1  0  0  0  0
 17 18  2  0  0  0  0
 17 27  1  0  0  0  0
 18 28  1  0  0  0  0
M  END
> <NMREDATA_VERSION>
1.1

> <NMREDATA_LEVEL>
0

> <NMREDATA_FORMULA>
C12H10P2S4

> <NMREDATA_SMILES>
S=P1(SP(=S)(S1)c1ccccc1)c1ccccc1

> <NMREDATA_ASSIGNMENT>
P2, 15.40, 2
P4, 15.40, 4

> <NMREDATA_1D_31P>
15.40, L=P2
15.40, L=P4

$$$$
