
 OpenBabel08102311343D

 74 78  0  0  0  0  0  0  0  0999 V2000
   20.6471  -25.4044   -0.0428 P    0  0  0  0  0  0  0  0  0  0  0  0
   24.1286  -28.8304    0.9569 C    0  0  0  0  0  0  0  0  0  0  0  0
   17.8455  -30.4895   -1.0795 C    0  0  0  0  0  0  0  0  0  0  0  0
   26.0001  -27.6426    1.5840 C    0  0  0  0  0  0  0  0  0  0  0  0
   24.7324  -27.6670    1.1823 C    0  0  0  0  0  0  0  0  0  0  0  0
   26.6639  -28.7816    1.7602 C    0  0  0  0  0  0  0  0  0  0  0  0
   26.0600  -29.9450    1.5348 C    0  0  0  0  0  0  0  0  0  0  0  0
   24.7923  -29.9693    1.1331 C    0  0  0  0  0  0  0  0  0  0  0  0
   17.1817  -29.3505   -1.2557 C    0  0  0  0  0  0  0  0  0  0  0  0
   15.9140  -29.3748   -1.6573 C    0  0  0  0  0  0  0  0  0  0  0  0
   15.3102  -30.5383   -1.8828 C    0  0  0  0  0  0  0  0  0  0  0  0
   17.2416  -31.6529   -1.3049 C    0  0  0  0  0  0  0  0  0  0  0  0
   15.9739  -31.6772   -1.7066 C    0  0  0  0  0  0  0  0  0  0  0  0
   23.0941  -21.9604    0.8331 S    0  0  0  0  0  0  0  0  0  0  0  0
   21.1999  -19.8699   -0.0428 C    0  5  0  0  0  0  0  0  0  0  0  0
   19.1808  -17.3862    0.0000 P    0  0  0  0  0  0  0  0  0  0  0  0
   15.6876  -13.8288    0.0000 C    0  0  0  0  0  0  0  0  0  0  0  0
   14.1493  -20.4628    0.0000 C    0  0  0  0  0  0  0  0  0  0  0  0
   16.8395  -11.8338    0.0000 C    0  0  0  0  0  0  0  0  0  0  0  0
   16.8395  -13.1638    0.0000 C    0  0  0  0  0  0  0  0  0  0  0  0
   15.6876  -11.1688    0.0000 C    0  0  0  0  0  0  0  0  0  0  0  0
   14.5358  -11.8338    0.0000 C    0  0  0  0  0  0  0  0  0  0  0  0
   14.5358  -13.1638    0.0000 C    0  0  0  0  0  0  0  0  0  0  0  0
   15.3012  -21.1278    0.0000 C    0  0  0  0  0  0  0  0  0  0  0  0
   15.3012  -22.4578    0.0000 C    0  0  0  0  0  0  0  0  0  0  0  0
   14.1493  -23.1228    0.0000 C    0  0  0  0  0  0  0  0  0  0  0  0
   12.9975  -21.1278    0.0000 C    0  0  0  0  0  0  0  0  0  0  0  0
   12.9975  -22.4578    0.0000 C    0  0  0  0  0  0  0  0  0  0  0  0
   22.5780  -14.7261    0.0000 S    0  0  0  0  0  0  0  0  0  0  0  0
   32.0028  -15.3892    0.0000 P    0  0  0  0  0  0  0  0  0  0  0  0
   27.2135  -14.0037    0.0000 C    0  0  0  0  0  0  0  0  0  0  0  0
   29.1282  -20.5389    0.0000 C    0  0  0  0  0  0  0  0  0  0  0  0
   27.2383  -11.7001    0.0000 C    0  0  0  0  0  0  0  0  0  0  0  0
   27.8909  -12.8590    0.0000 C    0  0  0  0  0  0  0  0  0  0  0  0
   25.9083  -11.6859    0.0000 C    0  0  0  0  0  0  0  0  0  0  0  0
   25.2310  -12.8305    0.0000 C    0  0  0  0  0  0  0  0  0  0  0  0
   25.8836  -13.9894    0.0000 C    0  0  0  0  0  0  0  0  0  0  0  0
   30.4583  -20.5531    0.0000 C    0  0  0  0  0  0  0  0  0  0  0  0
   31.1109  -21.7120    0.0000 C    0  0  0  0  0  0  0  0  0  0  0  0
   30.4335  -22.8567    0.0000 C    0  0  0  0  0  0  0  0  0  0  0  0
   28.4510  -21.6835    0.0000 C    0  0  0  0  0  0  0  0  0  0  0  0
   29.1036  -22.8424    0.0000 C    0  0  0  0  0  0  0  0  0  0  0  0
   33.6576  -11.4046    0.0000 S    0  0  0  0  0  0  0  0  0  0  0  0
    8.2204  -27.0807    0.0000 Li   0  3  0  0  0  0  0  0  0  0  0  0
   26.4687  -26.7399    1.7590 H    0  0  0  0  0  0  0  0  0  0  0  0
   24.2173  -26.7833    1.0455 H    0  0  0  0  0  0  0  0  0  0  0  0
   27.6475  -28.7627    2.0718 H    0  0  0  0  0  0  0  0  0  0  0  0
   26.5750  -30.8288    1.6716 H    0  0  0  0  0  0  0  0  0  0  0  0
   24.3237  -30.8720    0.9581 H    0  0  0  0  0  0  0  0  0  0  0  0
   17.6503  -28.4478   -1.0808 H    0  0  0  0  0  0  0  0  0  0  0  0
   15.3989  -28.4910   -1.7939 H    0  0  0  0  0  0  0  0  0  0  0  0
   14.3266  -30.5573   -2.1945 H    0  0  0  0  0  0  0  0  0  0  0  0
   17.7566  -32.5367   -1.1681 H    0  0  0  0  0  0  0  0  0  0  0  0
   15.5053  -32.5799   -1.8816 H    0  0  0  0  0  0  0  0  0  0  0  0
   17.7332  -11.3178    0.0000 H    0  0  0  0  0  0  0  0  0  0  0  0
   17.7332  -13.6798    0.0000 H    0  0  0  0  0  0  0  0  0  0  0  0
   15.6876  -10.1368    0.0000 H    0  0  0  0  0  0  0  0  0  0  0  0
   13.6421  -11.3178    0.0000 H    0  0  0  0  0  0  0  0  0  0  0  0
   13.6421  -13.6798    0.0000 H    0  0  0  0  0  0  0  0  0  0  0  0
   16.1949  -20.6118    0.0000 H    0  0  0  0  0  0  0  0  0  0  0  0
   16.1949  -22.9738    0.0000 H    0  0  0  0  0  0  0  0  0  0  0  0
   14.1493  -24.1548    0.0000 H    0  0  0  0  0  0  0  0  0  0  0  0
   12.1038  -20.6118    0.0000 H    0  0  0  0  0  0  0  0  0  0  0  0
   12.1038  -22.9738    0.0000 H    0  0  0  0  0  0  0  0  0  0  0  0
   27.7638  -10.8119    0.0000 H    0  0  0  0  0  0  0  0  0  0  0  0
   28.9228  -12.8701    0.0000 H    0  0  0  0  0  0  0  0  0  0  0  0
   25.4019  -10.7867    0.0000 H    0  0  0  0  0  0  0  0  0  0  0  0
   24.1991  -12.8194    0.0000 H    0  0  0  0  0  0  0  0  0  0  0  0
   25.3580  -14.8775    0.0000 H    0  0  0  0  0  0  0  0  0  0  0  0
   30.9838  -19.6649    0.0000 H    0  0  0  0  0  0  0  0  0  0  0  0
   32.1428  -21.7231    0.0000 H    0  0  0  0  0  0  0  0  0  0  0  0
   30.9399  -23.7559    0.0000 H    0  0  0  0  0  0  0  0  0  0  0  0
   27.4191  -21.6725    0.0000 H    0  0  0  0  0  0  0  0  0  0  0  0
   28.5780  -23.7305    0.0000 H    0  0  0  0  0  0  0  0  0  0  0  0
  1  2  1  0  0  0  0
  1  3  1  0  0  0  0
  1 14  2  0  0  0  0
  1 15  1  0  0  0  0
  2  8  1  0  0  0  0
  3 12  1  0  0  0  0
  4  5  1  0  0  0  0
  4  6  2  0  0  0  0
  4 45  1  0  0  0  0
  5  2  2  0  0  0  0
  5 46  1  0  0  0  0
  6  7  1  0  0  0  0
  6 47  1  0  0  0  0
  7  8  2  0  0  0  0
  7 48  1  0  0  0  0
  8 49  1  0  0  0  0
  9 10  1  0  0  0  0
  9  3  2  0  0  0  0
  9 50  1  0  0  0  0
 10 11  2  0  0  0  0
 10 51  1  0  0  0  0
 11 13  1  0  0  0  0
 11 52  1  0  0  0  0
 12 13  2  0  0  0  0
 12 53  1  0  0  0  0
 13 54  1  0  0  0  0
 15 16  1  0  0  0  0
 15 30  1  0  0  0  0
 16 17  1  0  0  0  0
 16 18  1  0  0  0  0
 16 29  2  0  0  0  0
 17 23  1  0  0  0  0
 18 27  1  0  0  0  0
 19 20  1  0  0  0  0
 19 21  2  0  0  0  0
 19 55  1  0  0  0  0
 20 17  2  0  0  0  0
 20 56  1  0  0  0  0
 21 22  1  0  0  0  0
 21 57  1  0  0  0  0
 22 23  2  0  0  0  0
 22 58  1  0  0  0  0
 23 59  1  0  0  0  0
 24 25  1  0  0  0  0
 24 18  2  0  0  0  0
 24 60  1  0  0  0  0
 25 26  2  0  0  0  0
 25 61  1  0  0  0  0
 26 28  1  0  0  0  0
 26 62  1  0  0  0  0
 27 28  2  0  0  0  0
 27 63  1  0  0  0  0
 28 64  1  0  0  0  0
 30 31  1  0  0  0  0
 30 32  1  0  0  0  0
 30 43  2  0  0  0  0
 31 37  1  0  0  0  0
 32 41  1  0  0  0  0
 33 34  1  0  0  0  0
 33 35  2  0  0  0  0
 33 65  1  0  0  0  0
 34 31  2  0  0  0  0
 34 66  1  0  0  0  0
 35 36  1  0  0  0  0
 35 67  1  0  0  0  0
 36 37  2  0  0  0  0
 36 68  1  0  0  0  0
 37 69  1  0  0  0  0
 38 39  1  0  0  0  0
 38 32  2  0  0  0  0
 38 70  1  0  0  0  0
 39 40  2  0  0  0  0
 39 71  1  0  0  0  0
 40 42  1  0  0  0  0
 40 72  1  0  0  0  0
 41 42  2  0  0  0  0
 41 73  1  0  0  0  0
 42 74  1  0  0  0  0
M  END
> <NMREDATA_VERSION>
1.1

> <NMREDATA_LEVEL>
0

> <NMREDATA_FORMULA>
C37H32LiP3S3

> <NMREDATA_SMILES>
S=P([C-](P(=S)(c1ccccc1)c1ccccc1)P(=S)(c1ccccc1)c1ccccc1)(c1ccccc1)c1ccccc1.[Li+]

> <NMREDATA_ASSIGNMENT>
P1, 43.30, 1
P16, 43.30, 16
P30, 43.30, 30

> <NMREDATA_1D_31P>
43.30, L=P1
43.30, L=P16
43.30, L=P30

$$$$
