
 OpenBabel08102311322D

 14 13  0  0  0  0  0  0  0  0999 V2000
   11.7146  -15.9389    0.0000 P    0  0  0  0  0  0  0  0  0  0  0  0
   13.5576  -15.9381    0.0000 Cl   0  0  0  0  0  0  0  0  0  0  0  0
    9.8718  -15.9395    0.0000 Cl   0  0  0  0  0  0  0  0  0  0  0  0
   11.7152  -17.7816    0.0000 O    0  0  0  0  0  0  0  0  0  0  0  0
   12.9635  -12.7231    0.0000 C    0  0  0  0  0  0  0  0  0  0  0  0
   14.5178  -12.5148    0.0000 C    0  0  0  0  0  0  0  0  0  0  0  0
   15.6430  -13.9742    0.0000 P    0  0  0  0  0  0  0  0  0  0  0  0
   17.4855  -13.9742    0.0000 Cl   0  0  0  0  0  0  0  0  0  0  0  0
   13.8003  -13.9742    0.0000 Cl   0  0  0  0  0  0  0  0  0  0  0  0
   15.6430  -12.1314    0.0000 O    0  0  0  0  0  0  0  0  0  0  0  0
   12.3017  -11.8823    0.0000 H    0  0  0  0  0  0  0  0  0  0  0  0
   13.3657  -11.7316    0.0000 H    0  0  0  0  0  0  0  0  0  0  0  0
   14.9250  -11.5253    0.0000 H    0  0  0  0  0  0  0  0  0  0  0  0
   15.5783  -12.3727    0.0000 H    0  0  0  0  0  0  0  0  0  0  0  0
  1  2  1  0  0  0  0
  1  3  1  0  0  0  0
  1  4  2  0  0  0  0
  1  5  1  0  0  0  0
  5  6  1  0  0  0  0
  5 11  1  0  0  0  0
  5 12  1  0  0  0  0
  6  7  1  0  0  0  0
  6 13  1  0  0  0  0
  6 14  1  0  0  0  0
  7  8  1  0  0  0  0
  7  9  1  0  0  0  0
  7 10  2  0  0  0  0
M  END
> <NMREDATA_VERSION>
1.1

> <NMREDATA_LEVEL>
0

> <NMREDATA_FORMULA>
C2H4Cl4O2P2

> <NMREDATA_SMILES>
ClP(=O)(CCP(=O)(Cl)Cl)Cl

> <NMREDATA_ASSIGNMENT>
P1, 42.50, 1
P7, 42.50, 7

> <NMREDATA_1D_31P>
42.50, L=P1
42.50, L=P7

$$$$
