
 OpenBabel04012508592D

 78 78  0  0  0  0  0  0  0  0999 V2000
   16.6980  -10.5067    0.0000 N   0  0  0  0  0  0  0  0  0  0  0  0
   16.7550  -11.8353    0.0000 P   0  0  0  0  0  0  0  0  0  0  0  0
   15.5187   -9.8914    0.0000 P   0  0  0  0  0  0  0  0  0  0  0  0
   15.6325  -12.5490    0.0000 N   0  0  0  0  0  0  0  0  0  0  0  0
   14.3964  -10.6052    0.0000 N   0  0  0  0  0  0  0  0  0  0  0  0
   14.4534  -11.9339    0.0000 P   0  0  0  0  0  0  0  0  0  0  0  0
   13.7332  -13.6861    0.0000 N   0  0  0  0  0  0  0  0  0  0  0  0
   14.3424   -8.9632    0.0000 N   0  0  0  0  0  0  0  0  0  0  0  0
   15.9929   -8.6587    0.0000 N   0  0  0  0  0  0  0  0  0  0  0  0
   17.8829  -11.7617    0.0000 N   0  0  0  0  0  0  0  0  0  0  0  0
   17.3701  -13.3160    0.0000 N   0  0  0  0  0  0  0  0  0  0  0  0
   12.8674  -11.8258    0.0000 N   0  0  0  0  0  0  0  0  0  0  0  0
   19.6295  -10.7682    0.0000 C   0  0  0  0  0  0  0  0  0  0  0  0
   20.7770  -11.4406    0.0000 C   0  0  0  0  0  0  0  0  0  0  0  0
   20.2829   -9.3433    0.0000 C   0  0  0  0  0  0  0  0  0  0  0  0
   19.1808  -14.1653    0.0000 C   0  0  0  0  0  0  0  0  0  0  0  0
   19.2938  -15.4905    0.0000 C   0  0  0  0  0  0  0  0  0  0  0  0
   20.2720  -13.4049    0.0000 C   0  0  0  0  0  0  0  0  0  0  0  0
   13.8769  -15.2710    0.0000 C   0  0  0  0  0  0  0  0  0  0  0  0
   12.7898  -16.0372    0.0000 C   0  0  0  0  0  0  0  0  0  0  0  0
   15.0840  -15.8293    0.0000 C   0  0  0  0  0  0  0  0  0  0  0  0
   11.7617  -11.0727    0.0000 C   0  0  0  0  0  0  0  0  0  0  0  0
   10.5636  -11.6502    0.0000 C   0  0  0  0  0  0  0  0  0  0  0  0
   11.6629  -12.3990    0.0000 C   0  0  0  0  0  0  0  0  0  0  0  0
   14.5338   -7.6471    0.0000 C   0  0  0  0  0  0  0  0  0  0  0  0
   15.7694   -7.1548    0.0000 C   0  0  0  0  0  0  0  0  0  0  0  0
   13.4897   -6.8232    0.0000 C   0  0  0  0  0  0  0  0  0  0  0  0
   17.1778   -8.3646    0.0000 C   0  0  0  0  0  0  0  0  0  0  0  0
   18.1007   -9.3223    0.0000 C   0  0  0  0  0  0  0  0  0  0  0  0
   17.5458   -7.0865    0.0000 C   0  0  0  0  0  0  0  0  0  0  0  0
   12.7246  -13.5339    0.0000 H   0  0  0  0  0  0  0  0  0  0  0  0
   13.3948   -9.3407    0.0000 H   0  0  0  0  0  0  0  0  0  0  0  0
   15.3177   -7.8942    0.0000 H   0  0  0  0  0  0  0  0  0  0  0  0
   18.1757  -12.7388    0.0000 H   0  0  0  0  0  0  0  0  0  0  0  0
   16.6329  -14.0209    0.0000 H   0  0  0  0  0  0  0  0  0  0  0  0
   12.5340  -12.7898    0.0000 H   0  0  0  0  0  0  0  0  0  0  0  0
   20.6500  -10.4465    0.0000 H   0  0  0  0  0  0  0  0  0  0  0  0
   20.7701  -12.5106    0.0000 H   0  0  0  0  0  0  0  0  0  0  0  0
   21.7071  -10.9116    0.0000 H   0  0  0  0  0  0  0  0  0  0  0  0
   21.7002  -11.9816    0.0000 H   0  0  0  0  0  0  0  0  0  0  0  0
   21.3482   -9.2432    0.0000 H   0  0  0  0  0  0  0  0  0  0  0  0
   19.6636   -8.4707    0.0000 H   0  0  0  0  0  0  0  0  0  0  0  0
   20.7289   -8.3707    0.0000 H   0  0  0  0  0  0  0  0  0  0  0  0
   20.1495  -14.6197    0.0000 H   0  0  0  0  0  0  0  0  0  0  0  0
   18.4160  -16.1023    0.0000 H   0  0  0  0  0  0  0  0  0  0  0  0
   20.2626  -15.9448    0.0000 H   0  0  0  0  0  0  0  0  0  0  0  0
   19.3847  -16.5566    0.0000 H   0  0  0  0  0  0  0  0  0  0  0  0
   21.2407  -13.8593    0.0000 H   0  0  0  0  0  0  0  0  0  0  0  0
   20.1812  -12.3388    0.0000 H   0  0  0  0  0  0  0  0  0  0  0  0
   21.1499  -12.7932    0.0000 H   0  0  0  0  0  0  0  0  0  0  0  0
   13.9735  -16.3366    0.0000 H   0  0  0  0  0  0  0  0  0  0  0  0
   11.8187  -15.5880    0.0000 H   0  0  0  0  0  0  0  0  0  0  0  0
   12.8863  -17.1028    0.0000 H   0  0  0  0  0  0  0  0  0  0  0  0
   11.9152  -16.6536    0.0000 H   0  0  0  0  0  0  0  0  0  0  0  0
   15.1806  -16.8949    0.0000 H   0  0  0  0  0  0  0  0  0  0  0  0
   15.9586  -15.2128    0.0000 H   0  0  0  0  0  0  0  0  0  0  0  0
   16.0552  -16.2785    0.0000 H   0  0  0  0  0  0  0  0  0  0  0  0
   11.1593  -11.9570    0.0000 H   0  0  0  0  0  0  0  0  0  0  0  0
    9.6793  -11.0478    0.0000 H   0  0  0  0  0  0  0  0  0  0  0  0
   10.4840  -12.7172    0.0000 H   0  0  0  0  0  0  0  0  0  0  0  0
    9.5997  -12.1148    0.0000 H   0  0  0  0  0  0  0  0  0  0  0  0
   10.6991  -12.8637    0.0000 H   0  0  0  0  0  0  0  0  0  0  0  0
   12.5472  -13.0014    0.0000 H   0  0  0  0  0  0  0  0  0  0  0  0
   11.5834  -13.4660    0.0000 H   0  0  0  0  0  0  0  0  0  0  0  0
   14.6878   -6.5882    0.0000 H   0  0  0  0  0  0  0  0  0  0  0  0
   16.6094   -7.8176    0.0000 H   0  0  0  0  0  0  0  0  0  0  0  0
   15.9234   -6.0959    0.0000 H   0  0  0  0  0  0  0  0  0  0  0  0
   16.7634   -6.7588    0.0000 H   0  0  0  0  0  0  0  0  0  0  0  0
   13.6437   -5.7643    0.0000 H   0  0  0  0  0  0  0  0  0  0  0  0
   12.4957   -7.2192    0.0000 H   0  0  0  0  0  0  0  0  0  0  0  0
   12.6497   -6.1604    0.0000 H   0  0  0  0  0  0  0  0  0  0  0  0
   18.2163   -8.1069    0.0000 H   0  0  0  0  0  0  0  0  0  0  0  0
   17.8047  -10.3505    0.0000 H   0  0  0  0  0  0  0  0  0  0  0  0
   19.1392   -9.0645    0.0000 H   0  0  0  0  0  0  0  0  0  0  0  0
   18.8432  -10.0928    0.0000 H   0  0  0  0  0  0  0  0  0  0  0  0
   18.5843   -6.8288    0.0000 H   0  0  0  0  0  0  0  0  0  0  0  0
   16.8034   -6.3160    0.0000 H   0  0  0  0  0  0  0  0  0  0  0  0
   17.8419   -6.0583    0.0000 H   0  0  0  0  0  0  0  0  0  0  0  0
  1  2  2  0  0  0  0
  1  3  1  0  0  0  0
  2 10  1  0  0  0  0
  2 11  1  0  0  0  0
  3  5  2  0  0  0  0
  3  8  1  0  0  0  0
  3  9  1  0  0  0  0
  4  6  2  0  0  0  0
  4  2  1  0  0  0  0
  5  6  1  0  0  0  0
  6  7  1  0  0  0  0
  6 12  1  0  0  0  0
  7 19  1  0  0  0  0
  7 31  1  0  0  0  0
  8 25  1  0  0  0  0
  8 32  1  0  0  0  0
  9 28  1  0  0  0  0
  9 33  1  0  0  0  0
 10 13  1  0  0  0  0
 10 34  1  0  0  0  0
 11 16  1  0  0  0  0
 11 35  1  0  0  0  0
 12 22  1  0  0  0  0
 12 36  1  0  0  0  0
 13 14  1  0  0  0  0
 13 15  1  0  0  0  0
 13 37  1  0  0  0  0
 14 38  1  0  0  0  0
 14 39  1  0  0  0  0
 14 40  1  0  0  0  0
 15 41  1  0  0  0  0
 15 42  1  0  0  0  0
 15 43  1  0  0  0  0
 16 17  1  0  0  0  0
 16 18  1  0  0  0  0
 16 44  1  0  0  0  0
 17 45  1  0  0  0  0
 17 46  1  0  0  0  0
 17 47  1  0  0  0  0
 18 48  1  0  0  0  0
 18 49  1  0  0  0  0
 18 50  1  0  0  0  0
 19 20  1  0  0  0  0
 19 21  1  0  0  0  0
 19 51  1  0  0  0  0
 20 52  1  0  0  0  0
 20 53  1  0  0  0  0
 20 54  1  0  0  0  0
 21 55  1  0  0  0  0
 21 56  1  0  0  0  0
 21 57  1  0  0  0  0
 22 23  1  0  0  0  0
 22 24  1  0  0  0  0
 22 58  1  0  0  0  0
 23 59  1  0  0  0  0
 23 60  1  0  0  0  0
 23 61  1  0  0  0  0
 24 62  1  0  0  0  0
 24 63  1  0  0  0  0
 24 64  1  0  0  0  0
 25 26  1  0  0  0  0
 25 27  1  0  0  0  0
 25 65  1  0  0  0  0
 26 66  1  0  0  0  0
 26 67  1  0  0  0  0
 26 68  1  0  0  0  0
 27 69  1  0  0  0  0
 27 70  1  0  0  0  0
 27 71  1  0  0  0  0
 28 29  1  0  0  0  0
 28 30  1  0  0  0  0
 28 72  1  0  0  0  0
 29 73  1  0  0  0  0
 29 74  1  0  0  0  0
 29 75  1  0  0  0  0
 30 76  1  0  0  0  0
 30 77  1  0  0  0  0
 30 78  1  0  0  0  0
M  END
> <NMREDATA_VERSION>
1.1

> <NMREDATA_LEVEL>
0

> <NMREDATA_FORMULA>
C18H48N9P3

> <NMREDATA_SMILES>
CC(NP1(=NP(=NP(=N1)(NC(C)C)NC(C)C)(NC(C)C)NC(C)C)NC(C)C)C

> <NMREDATA_ASSIGNMENT>
P2, 12.60, 2
P3, 12.60, 3
P6, 12.60, 6

> <NMREDATA_1D_31P>
12.60, L=P2
12.60, L=P3
12.60, L=P6

$$$$
