
 OpenBabel04012508592D

104112  0  0  0  0  0  0  0  0999 V2000
   17.6041  -13.3253    0.0000 P   0  0  0  0  0  0  0  0  0  0  0  0
   17.3593   -9.0813    0.0000 P   0  0  0  0  0  0  0  0  0  0  0  0
   15.5824   -9.0722    0.0000 N   0  0  0  0  0  0  0  0  0  0  0  0
   13.6152   -9.0219    0.0000 P   0  0  0  0  0  0  0  0  0  0  0  0
   13.7083  -11.1628    0.0000 N   0  0  0  0  0  0  0  0  0  0  0  0
   13.7736  -13.1502    0.0000 P   0  0  0  0  0  0  0  0  0  0  0  0
   15.6157  -13.2880    0.0000 N   0  0  0  0  0  0  0  0  0  0  0  0
   17.4696  -11.1657    0.0000 N   0  0  0  0  0  0  0  0  0  0  0  0
   19.0366  -12.6270    0.0000 O   0  0  0  0  0  0  0  0  0  0  0  0
   11.3130   -9.0216    0.0000 O   0  0  0  0  0  0  0  0  0  0  0  0
   12.0661  -13.6686    0.0000 O   0  0  0  0  0  0  0  0  0  0  0  0
   13.7166  -15.0787    0.0000 O   0  0  0  0  0  0  0  0  0  0  0  0
   17.8348  -15.0306    0.0000 O   0  0  0  0  0  0  0  0  0  0  0  0
   18.7322   -8.9575    0.0000 O   0  0  0  0  0  0  0  0  0  0  0  0
   12.9635   -6.9545    0.0000 O   0  0  0  0  0  0  0  0  0  0  0  0
   17.3221   -7.2589    0.0000 O   0  0  0  0  0  0  0  0  0  0  0  0
   14.3070   -5.4885    0.0000 C   0  0  0  0  0  0  0  0  0  0  0  0
   13.7093   -3.5920    0.0000 C   0  0  0  0  0  0  0  0  0  0  0  0
   16.2484   -5.9191    0.0000 C   0  0  0  0  0  0  0  0  0  0  0  0
   15.0530   -2.1261    0.0000 C   0  0  0  0  0  0  0  0  0  0  0  0
   17.5919   -4.4532    0.0000 C   0  0  0  0  0  0  0  0  0  0  0  0
   16.9942   -2.5567    0.0000 C   0  0  0  0  0  0  0  0  0  0  0  0
   19.0235   -6.2297    0.0000 C   0  0  0  0  0  0  0  0  0  0  0  0
   18.9829   -4.2417    0.0000 C   0  0  0  0  0  0  0  0  0  0  0  0
   20.7656   -7.1886    0.0000 C   0  0  0  0  0  0  0  0  0  0  0  0
   20.6845   -3.2125    0.0000 C   0  0  0  0  0  0  0  0  0  0  0  0
   22.4670   -6.1595    0.0000 C   0  0  0  0  0  0  0  0  0  0  0  0
   22.4264   -4.1714    0.0000 C   0  0  0  0  0  0  0  0  0  0  0  0
   20.6849  -13.7393    0.0000 C   0  0  0  0  0  0  0  0  0  0  0  0
   22.4723  -12.8681    0.0000 C   0  0  0  0  0  0  0  0  0  0  0  0
   20.5458  -15.7230    0.0000 C   0  0  0  0  0  0  0  0  0  0  0  0
   24.1206  -13.9805    0.0000 C   0  0  0  0  0  0  0  0  0  0  0  0
   22.1940  -16.8353    0.0000 C   0  0  0  0  0  0  0  0  0  0  0  0
   23.9814  -15.9641    0.0000 C   0  0  0  0  0  0  0  0  0  0  0  0
   16.2616  -16.2468    0.0000 C   0  0  0  0  0  0  0  0  0  0  0  0
   16.5283  -18.2173    0.0000 C   0  0  0  0  0  0  0  0  0  0  0  0
   14.4217  -15.4925    0.0000 C   0  0  0  0  0  0  0  0  0  0  0  0
   14.9549  -19.4335    0.0000 C   0  0  0  0  0  0  0  0  0  0  0  0
   12.8485  -16.7086    0.0000 C   0  0  0  0  0  0  0  0  0  0  0  0
   13.1152  -18.6791    0.0000 C   0  0  0  0  0  0  0  0  0  0  0  0
   11.9660  -16.0217    0.0000 C   0  0  0  0  0  0  0  0  0  0  0  0
   11.9073  -18.0093    0.0000 C   0  0  0  0  0  0  0  0  0  0  0  0
   10.2739  -14.9770    0.0000 C   0  0  0  0  0  0  0  0  0  0  0  0
   10.1565  -18.9522    0.0000 C   0  0  0  0  0  0  0  0  0  0  0  0
    8.5233  -15.9200    0.0000 C   0  0  0  0  0  0  0  0  0  0  0  0
    8.4646  -17.9076    0.0000 C   0  0  0  0  0  0  0  0  0  0  0  0
   10.6145  -12.3096    0.0000 C   0  0  0  0  0  0  0  0  0  0  0  0
    8.7118  -12.8872    0.0000 C   0  0  0  0  0  0  0  0  0  0  0  0
   11.0656  -10.3728    0.0000 C   0  0  0  0  0  0  0  0  0  0  0  0
    7.2602  -11.5281    0.0000 C   0  0  0  0  0  0  0  0  0  0  0  0
    9.6140   -9.0139    0.0000 C   0  0  0  0  0  0  0  0  0  0  0  0
    7.7113   -9.5915    0.0000 C   0  0  0  0  0  0  0  0  0  0  0  0
   23.1369   -9.6545    0.0000 C   0  0  0  0  0  0  0  0  0  0  0  0
   23.1369  -10.9845    0.0000 C   0  0  0  0  0  0  0  0  0  0  0  0
   21.9850   -8.9895    0.0000 C   0  0  0  0  0  0  0  0  0  0  0  0
   21.9850  -11.6495    0.0000 C   0  0  0  0  0  0  0  0  0  0  0  0
   20.8332   -9.6545    0.0000 C   0  0  0  0  0  0  0  0  0  0  0  0
   20.8332  -10.9845    0.0000 C   0  0  0  0  0  0  0  0  0  0  0  0
   10.3188   -7.2995    0.0000 C   0  0  0  0  0  0  0  0  0  0  0  0
    8.3303   -7.2995    0.0000 C   0  0  0  0  0  0  0  0  0  0  0  0
   11.3130   -5.5773    0.0000 C   0  0  0  0  0  0  0  0  0  0  0  0
    7.3361   -5.5773    0.0000 C   0  0  0  0  0  0  0  0  0  0  0  0
   10.3188   -3.8553    0.0000 C   0  0  0  0  0  0  0  0  0  0  0  0
    8.3303   -3.8553    0.0000 C   0  0  0  0  0  0  0  0  0  0  0  0
   12.7018   -3.3685    0.0000 H   0  0  0  0  0  0  0  0  0  0  0  0
   16.5586   -6.9034    0.0000 H   0  0  0  0  0  0  0  0  0  0  0  0
   14.7428   -1.1418    0.0000 H   0  0  0  0  0  0  0  0  0  0  0  0
   18.5994   -4.6767    0.0000 H   0  0  0  0  0  0  0  0  0  0  0  0
   17.6915   -1.7959    0.0000 H   0  0  0  0  0  0  0  0  0  0  0  0
   18.0788   -3.7440    0.0000 H   0  0  0  0  0  0  0  0  0  0  0  0
   20.7867   -8.2204    0.0000 H   0  0  0  0  0  0  0  0  0  0  0  0
   20.6635   -2.1807    0.0000 H   0  0  0  0  0  0  0  0  0  0  0  0
   23.3711   -6.6572    0.0000 H   0  0  0  0  0  0  0  0  0  0  0  0
   23.3094   -3.6373    0.0000 H   0  0  0  0  0  0  0  0  0  0  0  0
   22.5446  -11.8386    0.0000 H   0  0  0  0  0  0  0  0  0  0  0  0
   19.6181  -16.1752    0.0000 H   0  0  0  0  0  0  0  0  0  0  0  0
   25.0483  -13.5283    0.0000 H   0  0  0  0  0  0  0  0  0  0  0  0
   22.1218  -17.8648    0.0000 H   0  0  0  0  0  0  0  0  0  0  0  0
   24.8368  -16.5414    0.0000 H   0  0  0  0  0  0  0  0  0  0  0  0
   17.4832  -18.6088    0.0000 H   0  0  0  0  0  0  0  0  0  0  0  0
   14.2833  -14.4698    0.0000 H   0  0  0  0  0  0  0  0  0  0  0  0
   15.0932  -20.4562    0.0000 H   0  0  0  0  0  0  0  0  0  0  0  0
   11.8936  -16.3171    0.0000 H   0  0  0  0  0  0  0  0  0  0  0  0
   12.2987  -19.3103    0.0000 H   0  0  0  0  0  0  0  0  0  0  0  0
   12.7854  -18.5515    0.0000 H   0  0  0  0  0  0  0  0  0  0  0  0
   10.3043  -13.9454    0.0000 H   0  0  0  0  0  0  0  0  0  0  0  0
   10.1260  -19.9837    0.0000 H   0  0  0  0  0  0  0  0  0  0  0  0
    7.6452  -15.3779    0.0000 H   0  0  0  0  0  0  0  0  0  0  0  0
    7.5560  -18.3970    0.0000 H   0  0  0  0  0  0  0  0  0  0  0  0
    8.4776  -13.8923    0.0000 H   0  0  0  0  0  0  0  0  0  0  0  0
   12.0531  -10.0730    0.0000 H   0  0  0  0  0  0  0  0  0  0  0  0
    6.2727  -11.8279    0.0000 H   0  0  0  0  0  0  0  0  0  0  0  0
    9.8481   -8.0088    0.0000 H   0  0  0  0  0  0  0  0  0  0  0  0
    6.9579   -8.8862    0.0000 H   0  0  0  0  0  0  0  0  0  0  0  0
   24.0306   -9.1385    0.0000 H   0  0  0  0  0  0  0  0  0  0  0  0
   24.0306  -11.5005    0.0000 H   0  0  0  0  0  0  0  0  0  0  0  0
   21.9850   -7.9575    0.0000 H   0  0  0  0  0  0  0  0  0  0  0  0
   21.9850  -12.6815    0.0000 H   0  0  0  0  0  0  0  0  0  0  0  0
   19.9395  -11.5005    0.0000 H   0  0  0  0  0  0  0  0  0  0  0  0
    7.8143   -8.1932    0.0000 H   0  0  0  0  0  0  0  0  0  0  0  0
   12.3450   -5.5773    0.0000 H   0  0  0  0  0  0  0  0  0  0  0  0
    6.3041   -5.5773    0.0000 H   0  0  0  0  0  0  0  0  0  0  0  0
   10.8348   -2.9616    0.0000 H   0  0  0  0  0  0  0  0  0  0  0  0
    7.8143   -2.9616    0.0000 H   0  0  0  0  0  0  0  0  0  0  0  0
  1  7  1  0  0  0  0
  1  8  2  0  0  0  0
  1  9  1  0  0  0  0
  1 13  1  0  0  0  0
  2  3  2  0  0  0  0
  2 14  1  0  0  0  0
  2 16  1  0  0  0  0
  3  4  1  0  0  0  0
  4  5  2  0  0  0  0
  4 10  1  0  0  0  0
  4 15  1  0  0  0  0
  5  6  1  0  0  0  0
  6  7  2  0  0  0  0
  6 11  1  0  0  0  0
  6 12  1  0  0  0  0
  8  2  1  0  0  0  0
  9 29  1  0  0  0  0
 10 59  1  0  0  0  0
 11 47  1  0  0  0  0
 12 41  1  0  0  0  0
 13 35  1  0  0  0  0
 14 57  1  0  0  0  0
 15 17  1  0  0  0  0
 16 23  1  0  0  0  0
 17 18  1  0  0  0  0
 17 19  2  0  0  0  0
 18 20  2  0  0  0  0
 18 65  1  0  0  0  0
 19 21  1  0  0  0  0
 19 66  1  0  0  0  0
 20 22  1  0  0  0  0
 20 67  1  0  0  0  0
 21 22  2  0  0  0  0
 21 68  1  0  0  0  0
 22 69  1  0  0  0  0
 23 24  1  0  0  0  0
 23 25  2  0  0  0  0
 24 26  2  0  0  0  0
 24 70  1  0  0  0  0
 25 27  1  0  0  0  0
 25 71  1  0  0  0  0
 26 28  1  0  0  0  0
 26 72  1  0  0  0  0
 27 28  2  0  0  0  0
 27 73  1  0  0  0  0
 28 74  1  0  0  0  0
 29 30  1  0  0  0  0
 29 31  2  0  0  0  0
 30 32  2  0  0  0  0
 30 75  1  0  0  0  0
 31 33  1  0  0  0  0
 31 76  1  0  0  0  0
 32 34  1  0  0  0  0
 32 77  1  0  0  0  0
 33 34  2  0  0  0  0
 33 78  1  0  0  0  0
 34 79  1  0  0  0  0
 35 36  1  0  0  0  0
 35 37  2  0  0  0  0
 36 38  2  0  0  0  0
 36 80  1  0  0  0  0
 37 39  1  0  0  0  0
 37 81  1  0  0  0  0
 38 40  1  0  0  0  0
 38 82  1  0  0  0  0
 39 40  2  0  0  0  0
 39 83  1  0  0  0  0
 40 84  1  0  0  0  0
 41 42  1  0  0  0  0
 41 43  2  0  0  0  0
 42 44  2  0  0  0  0
 42 85  1  0  0  0  0
 43 45  1  0  0  0  0
 43 86  1  0  0  0  0
 44 46  1  0  0  0  0
 44 87  1  0  0  0  0
 45 46  2  0  0  0  0
 45 88  1  0  0  0  0
 46 89  1  0  0  0  0
 47 48  1  0  0  0  0
 47 49  2  0  0  0  0
 48 50  2  0  0  0  0
 48 90  1  0  0  0  0
 49 51  1  0  0  0  0
 49 91  1  0  0  0  0
 50 52  1  0  0  0  0
 50 92  1  0  0  0  0
 51 52  2  0  0  0  0
 51 93  1  0  0  0  0
 52 94  1  0  0  0  0
 53 54  1  0  0  0  0
 53 55  2  0  0  0  0
 53 95  1  0  0  0  0
 54 56  2  0  0  0  0
 54 96  1  0  0  0  0
 55 57  1  0  0  0  0
 55 97  1  0  0  0  0
 56 58  1  0  0  0  0
 56 98  1  0  0  0  0
 57 58  2  0  0  0  0
 58 99  1  0  0  0  0
 59 60  1  0  0  0  0
 59 61  2  0  0  0  0
 60 62  2  0  0  0  0
 60100  1  0  0  0  0
 61 63  1  0  0  0  0
 61101  1  0  0  0  0
 62 64  1  0  0  0  0
 62102  1  0  0  0  0
 63 64  2  0  0  0  0
 63103  1  0  0  0  0
 64104  1  0  0  0  0
M  END
> <NMREDATA_VERSION>
1.1

> <NMREDATA_LEVEL>
0

> <NMREDATA_FORMULA>
C48H40N4O8P4

> <NMREDATA_SMILES>
c1ccc(cc1)OP1(=NP(=NP(=NP(=N1)(Oc1ccccc1)Oc1ccccc1)(Oc1ccccc1)Oc1ccccc1)(Oc1ccccc1)Oc1ccccc1)Oc1ccccc1

> <NMREDATA_ASSIGNMENT>
P1, -12.60, 1
P2, -12.60, 2
P4, -12.60, 4
P6, -12.60, 6

> <NMREDATA_1D_31P>
-12.60, L=P1
-12.60, L=P2
-12.60, L=P4
-12.60, L=P6

$$$$
