
 OpenBabel04012508592D

 72 72  0  0  0  0  0  0  0  0999 V2000
   17.6041  -13.3253    0.0000 P   0  0  0  0  0  0  0  0  0  0  0  0
   17.3593   -9.0813    0.0000 P   0  0  0  0  0  0  0  0  0  0  0  0
   15.5824   -9.0722    0.0000 N   0  0  0  0  0  0  0  0  0  0  0  0
   13.6152   -9.0219    0.0000 P   0  0  0  0  0  0  0  0  0  0  0  0
   13.7083  -11.1628    0.0000 N   0  0  0  0  0  0  0  0  0  0  0  0
   13.7736  -13.1502    0.0000 P   0  0  0  0  0  0  0  0  0  0  0  0
   15.6157  -13.2880    0.0000 N   0  0  0  0  0  0  0  0  0  0  0  0
   17.4696  -11.1657    0.0000 N   0  0  0  0  0  0  0  0  0  0  0  0
   19.0366  -12.6270    0.0000 S   0  0  0  0  0  0  0  0  0  0  0  0
   11.3130   -9.0216    0.0000 S   0  0  0  0  0  0  0  0  0  0  0  0
   12.0661  -13.6686    0.0000 S   0  0  0  0  0  0  0  0  0  0  0  0
   13.7166  -15.0787    0.0000 S   0  0  0  0  0  0  0  0  0  0  0  0
   17.8348  -15.0306    0.0000 S   0  0  0  0  0  0  0  0  0  0  0  0
   18.7322   -8.9575    0.0000 S   0  0  0  0  0  0  0  0  0  0  0  0
   12.9635   -6.9545    0.0000 S   0  0  0  0  0  0  0  0  0  0  0  0
   17.3221   -7.2589    0.0000 S   0  0  0  0  0  0  0  0  0  0  0  0
   14.3070   -5.4885    0.0000 C   0  0  0  0  0  0  0  0  0  0  0  0
   13.7093   -3.5920    0.0000 C   0  0  0  0  0  0  0  0  0  0  0  0
   19.0235   -6.2297    0.0000 C   0  0  0  0  0  0  0  0  0  0  0  0
   18.9829   -4.2417    0.0000 C   0  0  0  0  0  0  0  0  0  0  0  0
   20.6849  -13.7393    0.0000 C   0  0  0  0  0  0  0  0  0  0  0  0
   22.4723  -12.8681    0.0000 C   0  0  0  0  0  0  0  0  0  0  0  0
   16.2616  -16.2468    0.0000 C   0  0  0  0  0  0  0  0  0  0  0  0
   16.5283  -18.2173    0.0000 C   0  0  0  0  0  0  0  0  0  0  0  0
   11.9660  -16.0217    0.0000 C   0  0  0  0  0  0  0  0  0  0  0  0
   11.9073  -18.0093    0.0000 C   0  0  0  0  0  0  0  0  0  0  0  0
   10.6145  -12.3096    0.0000 C   0  0  0  0  0  0  0  0  0  0  0  0
    8.7118  -12.8872    0.0000 C   0  0  0  0  0  0  0  0  0  0  0  0
   21.9850   -8.9895    0.0000 C   0  0  0  0  0  0  0  0  0  0  0  0
   20.8332   -9.6545    0.0000 C   0  0  0  0  0  0  0  0  0  0  0  0
   10.3188   -7.2995    0.0000 C   0  0  0  0  0  0  0  0  0  0  0  0
    8.3303   -7.2995    0.0000 C   0  0  0  0  0  0  0  0  0  0  0  0
   15.3516   -5.7202    0.0000 H   0  0  0  0  0  0  0  0  0  0  0  0
   14.6287   -6.5090    0.0000 H   0  0  0  0  0  0  0  0  0  0  0  0
   14.4323   -2.8032    0.0000 H   0  0  0  0  0  0  0  0  0  0  0  0
   12.6647   -3.3603    0.0000 H   0  0  0  0  0  0  0  0  0  0  0  0
   13.3877   -2.5715    0.0000 H   0  0  0  0  0  0  0  0  0  0  0  0
   19.9609   -6.7457    0.0000 H   0  0  0  0  0  0  0  0  0  0  0  0
   19.0454   -7.2995    0.0000 H   0  0  0  0  0  0  0  0  0  0  0  0
   19.8984   -3.6879    0.0000 H   0  0  0  0  0  0  0  0  0  0  0  0
   18.0455   -3.7257    0.0000 H   0  0  0  0  0  0  0  0  0  0  0  0
   18.9611   -3.1719    0.0000 H   0  0  0  0  0  0  0  0  0  0  0  0
   20.6100  -14.8067    0.0000 H   0  0  0  0  0  0  0  0  0  0  0  0
   19.7231  -14.2081    0.0000 H   0  0  0  0  0  0  0  0  0  0  0  0
   23.3592  -13.4667    0.0000 H   0  0  0  0  0  0  0  0  0  0  0  0
   22.5472  -11.8007    0.0000 H   0  0  0  0  0  0  0  0  0  0  0  0
   23.4341  -12.3993    0.0000 H   0  0  0  0  0  0  0  0  0  0  0  0
   15.2716  -15.8409    0.0000 H   0  0  0  0  0  0  0  0  0  0  0  0
   16.1181  -15.1865    0.0000 H   0  0  0  0  0  0  0  0  0  0  0  0
   15.6818  -18.8718    0.0000 H   0  0  0  0  0  0  0  0  0  0  0  0
   17.5183  -18.6232    0.0000 H   0  0  0  0  0  0  0  0  0  0  0  0
   16.6718  -19.2776    0.0000 H   0  0  0  0  0  0  0  0  0  0  0  0
   11.0555  -15.4596    0.0000 H   0  0  0  0  0  0  0  0  0  0  0  0
   11.9976  -14.9522    0.0000 H   0  0  0  0  0  0  0  0  0  0  0  0
   10.9653  -18.5167    0.0000 H   0  0  0  0  0  0  0  0  0  0  0  0
   12.8178  -18.5714    0.0000 H   0  0  0  0  0  0  0  0  0  0  0  0
   11.8757  -19.0788    0.0000 H   0  0  0  0  0  0  0  0  0  0  0  0
   10.8573  -11.2675    0.0000 H   0  0  0  0  0  0  0  0  0  0  0  0
   11.6384  -11.9988    0.0000 H   0  0  0  0  0  0  0  0  0  0  0  0
    7.9307  -12.1559    0.0000 H   0  0  0  0  0  0  0  0  0  0  0  0
    8.4690  -13.9293    0.0000 H   0  0  0  0  0  0  0  0  0  0  0  0
    7.6879  -13.1980    0.0000 H   0  0  0  0  0  0  0  0  0  0  0  0
   22.9116   -9.5245    0.0000 H   0  0  0  0  0  0  0  0  0  0  0  0
   21.9850   -7.9195    0.0000 H   0  0  0  0  0  0  0  0  0  0  0  0
   22.9116   -8.4545    0.0000 H   0  0  0  0  0  0  0  0  0  0  0  0
   20.9418  -10.7190    0.0000 H   0  0  0  0  0  0  0  0  0  0  0  0
   19.9986  -10.3240    0.0000 H   0  0  0  0  0  0  0  0  0  0  0  0
   10.8538   -6.3729    0.0000 H   0  0  0  0  0  0  0  0  0  0  0  0
   11.3888   -7.2995    0.0000 H   0  0  0  0  0  0  0  0  0  0  0  0
    7.7953   -6.3729    0.0000 H   0  0  0  0  0  0  0  0  0  0  0  0
    7.7953   -8.2261    0.0000 H   0  0  0  0  0  0  0  0  0  0  0  0
    7.2603   -7.2995    0.0000 H   0  0  0  0  0  0  0  0  0  0  0  0
  1  7  1  0  0  0  0
  1  8  2  0  0  0  0
  1  9  1  0  0  0  0
  1 13  1  0  0  0  0
  2  3  2  0  0  0  0
  2 14  1  0  0  0  0
  2 16  1  0  0  0  0
  3  4  1  0  0  0  0
  4  5  2  0  0  0  0
  4 10  1  0  0  0  0
  4 15  1  0  0  0  0
  5  6  1  0  0  0  0
  6  7  2  0  0  0  0
  6 11  1  0  0  0  0
  6 12  1  0  0  0  0
  8  2  1  0  0  0  0
  9 21  1  0  0  0  0
 10 31  1  0  0  0  0
 11 27  1  0  0  0  0
 12 25  1  0  0  0  0
 13 23  1  0  0  0  0
 14 30  1  0  0  0  0
 15 17  1  0  0  0  0
 16 19  1  0  0  0  0
 17 18  1  0  0  0  0
 17 33  1  0  0  0  0
 17 34  1  0  0  0  0
 18 35  1  0  0  0  0
 18 36  1  0  0  0  0
 18 37  1  0  0  0  0
 19 20  1  0  0  0  0
 19 38  1  0  0  0  0
 19 39  1  0  0  0  0
 20 40  1  0  0  0  0
 20 41  1  0  0  0  0
 20 42  1  0  0  0  0
 21 22  1  0  0  0  0
 21 43  1  0  0  0  0
 21 44  1  0  0  0  0
 22 45  1  0  0  0  0
 22 46  1  0  0  0  0
 22 47  1  0  0  0  0
 23 24  1  0  0  0  0
 23 48  1  0  0  0  0
 23 49  1  0  0  0  0
 24 50  1  0  0  0  0
 24 51  1  0  0  0  0
 24 52  1  0  0  0  0
 25 26  1  0  0  0  0
 25 53  1  0  0  0  0
 25 54  1  0  0  0  0
 26 55  1  0  0  0  0
 26 56  1  0  0  0  0
 26 57  1  0  0  0  0
 27 28  1  0  0  0  0
 27 58  1  0  0  0  0
 27 59  1  0  0  0  0
 28 60  1  0  0  0  0
 28 61  1  0  0  0  0
 28 62  1  0  0  0  0
 29 30  1  0  0  0  0
 29 63  1  0  0  0  0
 29 64  1  0  0  0  0
 29 65  1  0  0  0  0
 30 66  1  0  0  0  0
 30 67  1  0  0  0  0
 31 32  1  0  0  0  0
 31 68  1  0  0  0  0
 31 69  1  0  0  0  0
 32 70  1  0  0  0  0
 32 71  1  0  0  0  0
 32 72  1  0  0  0  0
M  END
> <NMREDATA_VERSION>
1.1

> <NMREDATA_LEVEL>
0

> <NMREDATA_FORMULA>
C16H40N4P4S8

> <NMREDATA_SMILES>
CCSP1(=NP(=NP(=NP(=N1)(SCC)SCC)(SCC)SCC)(SCC)SCC)SCC

> <NMREDATA_ASSIGNMENT>
P1, 25.60, 1
P2, 25.60, 2
P4, 25.60, 4
P6, 25.60, 6

> <NMREDATA_1D_31P>
25.60, L=P1
25.60, L=P2
25.60, L=P4
25.60, L=P6

$$$$
