
 OpenBabel08102311322D

 24 23  0  0  0  0  0  0  0  0999 V2000
   17.4053   -6.3270    0.0000 C   0  0  0  0  0  0  0  0  0  0  0  0
   16.7003   -5.1058    0.0000 P   0  0  0  0  0  0  0  0  0  0  0  0
   15.9952   -3.8846    0.0000 O   0  0  0  0  0  0  0  0  0  0  0  0
   15.4791   -5.8108    0.0000 O   0  0  0  0  0  0  0  0  0  0  0  0
   17.9215   -4.4007    0.0000 O   0  0  0  0  0  0  0  0  0  0  0  0
   15.9952   -8.7694    0.0000 C   0  0  0  0  0  0  0  0  0  0  0  0
   16.7003   -7.5482    0.0000 C   0  0  0  0  0  0  0  0  0  0  0  0
   15.4791   -6.8431    0.0000 F   0  0  0  0  0  0  0  0  0  0  0  0
   17.9215   -8.2532    0.0000 F   0  0  0  0  0  0  0  0  0  0  0  0
   17.2164   -9.4744    0.0000 F   0  0  0  0  0  0  0  0  0  0  0  0
   14.7740   -8.0643    0.0000 F   0  0  0  0  0  0  0  0  0  0  0  0
   15.2901   -9.9906    0.0000 C   0  0  0  0  0  0  0  0  0  0  0  0
   15.9952  -11.2118    0.0000 P   0  0  0  0  0  0  0  0  0  0  0  0
   14.7740  -11.9168    0.0000 O   0  0  0  0  0  0  0  0  0  0  0  0
   17.2164  -10.5067    0.0000 O   0  0  0  0  0  0  0  0  0  0  0  0
   16.7003  -12.4330    0.0000 O   0  0  0  0  0  0  0  0  0  0  0  0
   18.4753   -6.3270    0.0000 H   0  0  0  0  0  0  0  0  0  0  0  0
   17.9403   -7.2536    0.0000 H   0  0  0  0  0  0  0  0  0  0  0  0
   14.6391   -5.3258    0.0000 H   0  0  0  0  0  0  0  0  0  0  0  0
   18.7616   -4.8857    0.0000 H   0  0  0  0  0  0  0  0  0  0  0  0
   14.2201   -9.9906    0.0000 H   0  0  0  0  0  0  0  0  0  0  0  0
   14.7551  -10.9173    0.0000 H   0  0  0  0  0  0  0  0  0  0  0  0
   18.0565  -10.9917    0.0000 H   0  0  0  0  0  0  0  0  0  0  0  0
   16.2153  -13.2731    0.0000 H   0  0  0  0  0  0  0  0  0  0  0  0
  1  2  1  0  0  0  0
  1  7  1  0  0  0  0
  1 17  1  0  0  0  0
  1 18  1  0  0  0  0
  2  3  2  0  0  0  0
  2  4  1  0  0  0  0
  2  5  1  0  0  0  0
  4 19  1  0  0  0  0
  5 20  1  0  0  0  0
  6  7  1  0  0  0  0
  6 10  1  0  0  0  0
  6 11  1  0  0  0  0
  6 12  1  0  0  0  0
  7  8  1  0  0  0  0
  7  9  1  0  0  0  0
 12 13  1  0  0  0  0
 12 21  1  0  0  0  0
 12 22  1  0  0  0  0
 13 14  2  0  0  0  0
 13 15  1  0  0  0  0
 13 16  1  0  0  0  0
 15 23  1  0  0  0  0
 16 24  1  0  0  0  0
M  END
> <NMREDATA_VERSION>
1.1

> <NMREDATA_LEVEL>
0

> <NMREDATA_FORMULA>
C4H8F4O6P2

> <NMREDATA_SMILES>
FC(C(CP(=O)(O)O)(F)F)(CP(=O)(O)O)F

> <NMREDATA_ASSIGNMENT>
P2, -1.00, 2
P13, -1.00, 13

> <NMREDATA_1D_31P>
-1.00, L=P2
-1.00, L=P13

$$$$
