
 OpenBabel08102311312D

 74 78  0  0  0  0  0  0  0  0999 V2000
    5.1426  -10.1569    0.0000 C   0  0  3  0  0  0  0  0  0  0  0  0
    5.2816   -8.8342    0.0000 C   0  0  3  0  0  0  0  0  0  0  0  0
    6.3576  -10.6979    0.0000 C   0  0  0  0  0  0  0  0  0  0  0  0
    6.5825   -8.5577    0.0000 C   0  0  0  0  0  0  0  0  0  0  0  0
    7.2475   -9.7095    0.0000 N   0  0  0  0  0  0  0  0  0  0  0  0
    4.2932   -7.9442    0.0000 P   0  0  0  0  0  0  0  0  0  0  0  0
    3.9908  -10.8219    0.0000 P   0  0  0  0  0  0  0  0  0  0  0  0
    4.5697   -6.6433    0.0000 C   0  0  0  0  0  0  0  0  0  0  0  0
    3.0283   -8.3552    0.0000 C   0  0  0  0  0  0  0  0  0  0  0  0
    3.9908  -12.1519    0.0000 C   0  0  0  0  0  0  0  0  0  0  0  0
    2.8389  -10.1569    0.0000 C   0  0  0  0  0  0  0  0  0  0  0  0
    8.5702   -9.8485    0.0000 C   0  0  0  0  0  0  0  0  0  0  0  0
    9.3520   -8.7725    0.0000 C   0  0  0  0  0  0  0  0  0  0  0  0
   10.6747   -8.9115    0.0000 O   0  0  0  0  0  0  0  0  0  0  0  0
   11.4565   -7.8355    0.0000 C   0  0  0  0  0  0  0  0  0  0  0  0
   12.7792   -7.9746    0.0000 C   0  0  0  0  0  0  0  0  0  0  0  0
    9.1112  -11.0635    0.0000 O   0  0  0  0  0  0  0  0  0  0  0  0
   13.5609   -6.8986    0.0000 O   0  0  0  0  0  0  0  0  0  0  0  0
   14.8836   -7.0376    0.0000 C   0  0  0  0  0  0  0  0  0  0  0  0
    3.5813   -5.7534    0.0000 C   0  0  0  0  0  0  0  0  0  0  0  0
    3.8579   -4.4524    0.0000 C   0  0  0  0  0  0  0  0  0  0  0  0
    5.1228   -4.0414    0.0000 C   0  0  0  0  0  0  0  0  0  0  0  0
    6.1112   -4.9314    0.0000 C   0  0  0  0  0  0  0  0  0  0  0  0
    5.8346   -6.2323    0.0000 C   0  0  0  0  0  0  0  0  0  0  0  0
    2.7518   -9.6562    0.0000 C   0  0  0  0  0  0  0  0  0  0  0  0
    1.4869  -10.0672    0.0000 C   0  0  0  0  0  0  0  0  0  0  0  0
    0.4985   -9.1772    0.0000 C   0  0  0  0  0  0  0  0  0  0  0  0
    0.7750   -7.8763    0.0000 C   0  0  0  0  0  0  0  0  0  0  0  0
    2.0399   -7.4653    0.0000 C   0  0  0  0  0  0  0  0  0  0  0  0
    5.1426  -12.8169    0.0000 C   0  0  0  0  0  0  0  0  0  0  0  0
    5.1426  -14.1469    0.0000 C   0  0  0  0  0  0  0  0  0  0  0  0
    3.9908  -14.8119    0.0000 C   0  0  0  0  0  0  0  0  0  0  0  0
    2.8389  -14.1469    0.0000 C   0  0  0  0  0  0  0  0  0  0  0  0
    2.8389  -12.8169    0.0000 C   0  0  0  0  0  0  0  0  0  0  0  0
    1.6871  -10.8219    0.0000 C   0  0  0  0  0  0  0  0  0  0  0  0
    0.5353  -10.1569    0.0000 C   0  0  0  0  0  0  0  0  0  0  0  0
    0.5353   -8.8269    0.0000 C   0  0  0  0  0  0  0  0  0  0  0  0
    1.6871   -8.1619    0.0000 C   0  0  0  0  0  0  0  0  0  0  0  0
    2.8389   -8.8269    0.0000 C   0  0  0  0  0  0  0  0  0  0  0  0
    6.0693   -9.6219    0.0000 H   0  0  0  0  0  0  0  0  0  0  0  0
    6.0768   -9.5502    0.0000 H   0  0  0  0  0  0  0  0  0  0  0  0
    6.5801  -11.7445    0.0000 H   0  0  0  0  0  0  0  0  0  0  0  0
    7.3911  -10.9748    0.0000 H   0  0  0  0  0  0  0  0  0  0  0  0
    7.0177   -7.5802    0.0000 H   0  0  0  0  0  0  0  0  0  0  0  0
    7.6510   -8.5017    0.0000 H   0  0  0  0  0  0  0  0  0  0  0  0
    8.9168   -7.7950    0.0000 H   0  0  0  0  0  0  0  0  0  0  0  0
    9.9809   -7.9068    0.0000 H   0  0  0  0  0  0  0  0  0  0  0  0
   11.0213   -6.8580    0.0000 H   0  0  0  0  0  0  0  0  0  0  0  0
   12.0855   -6.9699    0.0000 H   0  0  0  0  0  0  0  0  0  0  0  0
   13.2144   -8.9521    0.0000 H   0  0  0  0  0  0  0  0  0  0  0  0
   13.8433   -8.0864    0.0000 H   0  0  0  0  0  0  0  0  0  0  0  0
   15.3188   -8.0151    0.0000 H   0  0  0  0  0  0  0  0  0  0  0  0
   15.5125   -6.1719    0.0000 H   0  0  0  0  0  0  0  0  0  0  0  0
   15.9477   -7.1494    0.0000 H   0  0  0  0  0  0  0  0  0  0  0  0
    2.5998   -6.0723    0.0000 H   0  0  0  0  0  0  0  0  0  0  0  0
    3.0910   -3.7618    0.0000 H   0  0  0  0  0  0  0  0  0  0  0  0
    5.3374   -3.0320    0.0000 H   0  0  0  0  0  0  0  0  0  0  0  0
    7.0927   -4.6125    0.0000 H   0  0  0  0  0  0  0  0  0  0  0  0
    6.6015   -6.9229    0.0000 H   0  0  0  0  0  0  0  0  0  0  0  0
    3.5187  -10.3467    0.0000 H   0  0  0  0  0  0  0  0  0  0  0  0
    1.2723  -11.0766    0.0000 H   0  0  0  0  0  0  0  0  0  0  0  0
   -0.4830   -9.4961    0.0000 H   0  0  0  0  0  0  0  0  0  0  0  0
    0.0081   -7.1858    0.0000 H   0  0  0  0  0  0  0  0  0  0  0  0
    2.2544   -6.4558    0.0000 H   0  0  0  0  0  0  0  0  0  0  0  0
    6.0363  -12.3009    0.0000 H   0  0  0  0  0  0  0  0  0  0  0  0
    6.0363  -14.6629    0.0000 H   0  0  0  0  0  0  0  0  0  0  0  0
    3.9908  -15.8439    0.0000 H   0  0  0  0  0  0  0  0  0  0  0  0
    1.9452  -14.6629    0.0000 H   0  0  0  0  0  0  0  0  0  0  0  0
    1.9452  -12.3009    0.0000 H   0  0  0  0  0  0  0  0  0  0  0  0
    1.6871  -11.8539    0.0000 H   0  0  0  0  0  0  0  0  0  0  0  0
   -0.3584  -10.6729    0.0000 H   0  0  0  0  0  0  0  0  0  0  0  0
   -0.3584   -8.3109    0.0000 H   0  0  0  0  0  0  0  0  0  0  0  0
    1.6871   -7.1299    0.0000 H   0  0  0  0  0  0  0  0  0  0  0  0
    3.7326   -8.3109    0.0000 H   0  0  0  0  0  0  0  0  0  0  0  0
  1  2  1  0  0  0  0
  1  3  1  0  0  0  0
  1  7  1  0  0  0  0
  1 40  1  0  0  0  0
  2  4  1  0  0  0  0
  2  6  1  0  0  0  0
  2 41  1  0  0  0  0
  3  5  1  0  0  0  0
  3 42  1  0  0  0  0
  3 43  1  0  0  0  0
  4  5  1  0  0  0  0
  4 44  1  0  0  0  0
  4 45  1  0  0  0  0
  5 12  1  0  0  0  0
  6  8  1  0  0  0  0
  6  9  1  0  0  0  0
  7 10  1  0  0  0  0
  7 11  1  0  0  0  0
  8 20  2  0  0  0  0
  8 24  1  0  0  0  0
  9 25  2  0  0  0  0
  9 29  1  0  0  0  0
 10 30  2  0  0  0  0
 10 34  1  0  0  0  0
 11 35  2  0  0  0  0
 11 39  1  0  0  0  0
 12 13  1  0  0  0  0
 12 17  2  0  0  0  0
 13 14  1  0  0  0  0
 13 46  1  0  0  0  0
 13 47  1  0  0  0  0
 14 15  1  0  0  0  0
 15 16  1  0  0  0  0
 15 48  1  0  0  0  0
 15 49  1  0  0  0  0
 16 18  1  0  0  0  0
 16 50  1  0  0  0  0
 16 51  1  0  0  0  0
 18 19  1  0  0  0  0
 19 52  1  0  0  0  0
 19 53  1  0  0  0  0
 19 54  1  0  0  0  0
 20 21  1  0  0  0  0
 20 55  1  0  0  0  0
 21 22  2  0  0  0  0
 21 56  1  0  0  0  0
 22 23  1  0  0  0  0
 22 57  1  0  0  0  0
 23 24  2  0  0  0  0
 23 58  1  0  0  0  0
 24 59  1  0  0  0  0
 25 26  1  0  0  0  0
 25 60  1  0  0  0  0
 26 27  2  0  0  0  0
 26 61  1  0  0  0  0
 27 28  1  0  0  0  0
 27 62  1  0  0  0  0
 28 29  2  0  0  0  0
 28 63  1  0  0  0  0
 29 64  1  0  0  0  0
 30 31  1  0  0  0  0
 30 65  1  0  0  0  0
 31 32  2  0  0  0  0
 31 66  1  0  0  0  0
 32 33  1  0  0  0  0
 32 67  1  0  0  0  0
 33 34  2  0  0  0  0
 33 68  1  0  0  0  0
 34 69  1  0  0  0  0
 35 36  1  0  0  0  0
 35 70  1  0  0  0  0
 36 37  2  0  0  0  0
 36 71  1  0  0  0  0
 37 38  1  0  0  0  0
 37 72  1  0  0  0  0
 38 39  2  0  0  0  0
 38 73  1  0  0  0  0
 39 74  1  0  0  0  0
M  END
> <NMREDATA_VERSION>
1.1

> <NMREDATA_LEVEL>
0

> <NMREDATA_FORMULA>
C33H35NO3P2

> <NMREDATA_SMILES>
COCCOCC(=O)N1CC(C(C1)P(c1ccccc1)c1ccccc1)P(c1ccccc1)c1ccccc1

> <NMREDATA_ASSIGNMENT>
P6, -10.70, 6
P7, -10.70, 7

> <NMREDATA_1D_31P>
-10.70, L=P6
-10.70, L=P7

$$$$
