
 OpenBabel08102311332D

 32 32  0  0  0  0  0  0  0  0999 V2000
   18.5109  -15.3380    0.0000 P   0  0  3  0  0  0  0  0  0  0  0  0
   19.6627  -14.6730    0.0000 S   0  0  0  0  0  0  0  0  0  0  0  0
   17.3591  -16.0030    0.0000 C   0  0  0  0  0  0  0  0  0  0  0  0
   17.8459  -14.1861    0.0000 S   0  0  0  0  0  0  0  0  0  0  0  0
   19.1759  -16.4898    0.0000 C   0  0  0  0  0  0  0  0  0  0  0  0
   20.5059  -16.4898    0.0000 C   0  0  0  0  0  0  0  0  0  0  0  0
   21.1709  -17.6416    0.0000 C   0  0  0  0  0  0  0  0  0  0  0  0
   20.5059  -18.7934    0.0000 C   0  0  0  0  0  0  0  0  0  0  0  0
   18.5109  -17.6416    0.0000 C   0  0  0  0  0  0  0  0  0  0  0  0
   19.1759  -18.7934    0.0000 C   0  0  0  0  0  0  0  0  0  0  0  0
   21.1709  -19.9452    0.0000 P   0  0  3  0  0  0  0  0  0  0  0  0
   22.3227  -19.2802    0.0000 S   0  0  0  0  0  0  0  0  0  0  0  0
   20.0191  -20.6102    0.0000 C   0  0  0  0  0  0  0  0  0  0  0  0
   21.8359  -21.0970    0.0000 S   0  0  0  0  0  0  0  0  0  0  0  0
   18.5109  -13.0343    0.0000 C   0  0  0  0  0  0  0  0  0  0  0  0
   23.1659  -21.0970    0.0000 C   0  0  0  0  0  0  0  0  0  0  0  0
   16.4325  -15.4680    0.0000 H   0  0  0  0  0  0  0  0  0  0  0  0
   17.3591  -17.0730    0.0000 H   0  0  0  0  0  0  0  0  0  0  0  0
   16.4325  -16.5380    0.0000 H   0  0  0  0  0  0  0  0  0  0  0  0
   21.0219  -15.5961    0.0000 H   0  0  0  0  0  0  0  0  0  0  0  0
   22.2029  -17.6416    0.0000 H   0  0  0  0  0  0  0  0  0  0  0  0
   17.4789  -17.6416    0.0000 H   0  0  0  0  0  0  0  0  0  0  0  0
   18.6599  -19.6871    0.0000 H   0  0  0  0  0  0  0  0  0  0  0  0
   19.0925  -20.0752    0.0000 H   0  0  0  0  0  0  0  0  0  0  0  0
   20.0191  -21.6802    0.0000 H   0  0  0  0  0  0  0  0  0  0  0  0
   19.0925  -21.1452    0.0000 H   0  0  0  0  0  0  0  0  0  0  0  0
   19.5809  -13.0343    0.0000 H   0  0  0  0  0  0  0  0  0  0  0  0
   17.9759  -12.1077    0.0000 H   0  0  0  0  0  0  0  0  0  0  0  0
   19.0459  -12.1077    0.0000 H   0  0  0  0  0  0  0  0  0  0  0  0
   23.7009  -22.0236    0.0000 H   0  0  0  0  0  0  0  0  0  0  0  0
   23.7009  -20.1704    0.0000 H   0  0  0  0  0  0  0  0  0  0  0  0
   24.2359  -21.0970    0.0000 H   0  0  0  0  0  0  0  0  0  0  0  0
  1  2  2  0  0  0  0
  1  3  1  0  0  0  0
  1  4  1  0  0  0  0
  1  5  1  0  0  0  0
  3 17  1  0  0  0  0
  3 18  1  0  0  0  0
  3 19  1  0  0  0  0
  4 15  1  0  0  0  0
  5  9  1  0  0  0  0
  6  7  1  0  0  0  0
  6  5  2  0  0  0  0
  6 20  1  0  0  0  0
  7  8  2  0  0  0  0
  7 21  1  0  0  0  0
  8 10  1  0  0  0  0
  8 11  1  0  0  0  0
  9 10  2  0  0  0  0
  9 22  1  0  0  0  0
 10 23  1  0  0  0  0
 11 12  2  0  0  0  0
 11 13  1  0  0  0  0
 11 14  1  0  0  0  0
 13 24  1  0  0  0  0
 13 25  1  0  0  0  0
 13 26  1  0  0  0  0
 14 16  1  0  0  0  0
 15 27  1  0  0  0  0
 15 28  1  0  0  0  0
 15 29  1  0  0  0  0
 16 30  1  0  0  0  0
 16 31  1  0  0  0  0
 16 32  1  0  0  0  0
M  END
> <NMREDATA_VERSION>
1.1

> <NMREDATA_LEVEL>
0

> <NMREDATA_FORMULA>
C10H16P2S4

> <NMREDATA_SMILES>
CSP(=S)(c1ccc(cc1)P(=S)(SC)C)C

> <NMREDATA_ASSIGNMENT>
P1, 58.10, 1
P11, 58.10, 11

> <NMREDATA_1D_31P>
58.10, L=P1
58.10, L=P11

$$$$
