
 OpenBabel08102311352D

 53 56  0  0  0  0  0  0  0  0999 V2000
    6.3725  -11.0319    0.0000 P   0  0  0  0  0  0  0  0  0  0  0  0
    5.3509  -10.1710    0.0000 C   0  0  0  0  0  0  0  0  0  0  0  0
    4.0961  -10.6176    0.0000 C   0  0  0  0  0  0  0  0  0  0  0  0
    5.5868   -8.8515    0.0000 C   0  0  0  0  0  0  0  0  0  0  0  0
    3.0745   -9.7567    0.0000 C   0  0  0  0  0  0  0  0  0  0  0  0
    4.5653   -7.9906    0.0000 C   0  0  0  0  0  0  0  0  0  0  0  0
    3.3149   -8.4449    0.0000 C   0  0  0  0  0  0  0  0  0  0  0  0
    6.8809   -9.7919    0.0000 F   0  0  0  0  0  0  0  0  0  0  0  0
    5.2328  -11.7309    0.0000 F   0  0  0  0  0  0  0  0  0  0  0  0
    8.7740  -10.3446    0.0000 P   0  0  0  0  0  0  0  0  0  0  0  0
    9.1929   -9.0742    0.0000 C   0  0  0  0  0  0  0  0  0  0  0  0
   10.4934   -8.7963    0.0000 C   0  0  0  0  0  0  0  0  0  0  0  0
    8.3032   -8.0856    0.0000 C   0  0  0  0  0  0  0  0  0  0  0  0
   10.9124   -7.5260    0.0000 C   0  0  0  0  0  0  0  0  0  0  0  0
    8.7098   -6.8118    0.0000 C   0  0  0  0  0  0  0  0  0  0  0  0
   10.0227   -6.5374    0.0000 C   0  0  0  0  0  0  0  0  0  0  0  0
    9.1853  -11.6094    0.0000 F   0  0  0  0  0  0  0  0  0  0  0  0
    7.6977   -9.5673    0.0000 F   0  0  0  0  0  0  0  0  0  0  0  0
    7.6992  -11.1197    0.0000 C   0  0  0  0  0  0  0  0  0  0  0  0
    6.6855  -12.3222    0.0000 C   0  0  0  0  0  0  0  0  0  0  0  0
    7.9689  -12.6922    0.0000 C   0  0  0  0  0  0  0  0  0  0  0  0
    5.7192  -13.2506    0.0000 C   0  0  0  0  0  0  0  0  0  0  0  0
    8.2865  -13.9905    0.0000 C   0  0  0  0  0  0  0  0  0  0  0  0
    6.0443  -14.5443    0.0000 C   0  0  0  0  0  0  0  0  0  0  0  0
    7.3203  -14.9189    0.0000 C   0  0  0  0  0  0  0  0  0  0  0  0
   11.8707  -12.0551    0.0000 C   0  0  0  0  0  0  0  0  0  0  0  0
   10.5557  -11.8266    0.0000 C   0  0  0  0  0  0  0  0  0  0  0  0
   12.7194  -11.0299    0.0000 C   0  0  0  0  0  0  0  0  0  0  0  0
   10.0892  -10.5730    0.0000 C   0  0  0  0  0  0  0  0  0  0  0  0
   12.2650   -9.7800    0.0000 C   0  0  0  0  0  0  0  0  0  0  0  0
   10.9456   -9.5437    0.0000 C   0  0  0  0  0  0  0  0  0  0  0  0
    3.9122  -11.6331    0.0000 H   0  0  0  0  0  0  0  0  0  0  0  0
    6.5574   -8.5007    0.0000 H   0  0  0  0  0  0  0  0  0  0  0  0
    2.1032  -10.1054    0.0000 H   0  0  0  0  0  0  0  0  0  0  0  0
    4.7459   -6.9745    0.0000 H   0  0  0  0  0  0  0  0  0  0  0  0
    2.5268   -7.7787    0.0000 H   0  0  0  0  0  0  0  0  0  0  0  0
   11.1827   -9.5644    0.0000 H   0  0  0  0  0  0  0  0  0  0  0  0
    7.2943   -8.3027    0.0000 H   0  0  0  0  0  0  0  0  0  0  0  0
   11.9223   -7.3138    0.0000 H   0  0  0  0  0  0  0  0  0  0  0  0
    8.0186   -6.0455    0.0000 H   0  0  0  0  0  0  0  0  0  0  0  0
   10.3434   -5.5565    0.0000 H   0  0  0  0  0  0  0  0  0  0  0  0
    7.9942  -12.1482    0.0000 H   0  0  0  0  0  0  0  0  0  0  0  0
    7.0274  -11.9525    0.0000 H   0  0  0  0  0  0  0  0  0  0  0  0
    8.7134  -11.9775    0.0000 H   0  0  0  0  0  0  0  0  0  0  0  0
    4.7273  -12.9658    0.0000 H   0  0  0  0  0  0  0  0  0  0  0  0
    9.2775  -14.2784    0.0000 H   0  0  0  0  0  0  0  0  0  0  0  0
    5.3003  -15.2595    0.0000 H   0  0  0  0  0  0  0  0  0  0  0  0
    7.5656  -15.9213    0.0000 H   0  0  0  0  0  0  0  0  0  0  0  0
   12.2281  -13.0232    0.0000 H   0  0  0  0  0  0  0  0  0  0  0  0
    9.8962  -12.6204    0.0000 H   0  0  0  0  0  0  0  0  0  0  0  0
   13.7363  -11.2059    0.0000 H   0  0  0  0  0  0  0  0  0  0  0  0
   12.9296   -8.9905    0.0000 H   0  0  0  0  0  0  0  0  0  0  0  0
   10.5919   -8.5742    0.0000 H   0  0  0  0  0  0  0  0  0  0  0  0
  1  2  1  0  0  0  0
  1  8  1  0  0  0  0
  1  9  1  0  0  0  0
  1 19  1  0  0  0  0
  1 20  1  0  0  0  0
  2  3  1  0  0  0  0
  2  4  2  0  0  0  0
  3  5  2  0  0  0  0
  3 32  1  0  0  0  0
  4  6  1  0  0  0  0
  4 33  1  0  0  0  0
  5  7  1  0  0  0  0
  5 34  1  0  0  0  0
  6  7  2  0  0  0  0
  6 35  1  0  0  0  0
  7 36  1  0  0  0  0
 10 11  1  0  0  0  0
 10 17  1  0  0  0  0
 10 18  1  0  0  0  0
 10 19  1  0  0  0  0
 10 29  1  0  0  0  0
 11 12  1  0  0  0  0
 11 13  2  0  0  0  0
 12 14  2  0  0  0  0
 12 37  1  0  0  0  0
 13 15  1  0  0  0  0
 13 38  1  0  0  0  0
 14 16  1  0  0  0  0
 14 39  1  0  0  0  0
 15 16  2  0  0  0  0
 15 40  1  0  0  0  0
 16 41  1  0  0  0  0
 19 42  1  0  0  0  0
 19 43  1  0  0  0  0
 20 21  1  0  0  0  0
 20 22  2  0  0  0  0
 21 23  2  0  0  0  0
 21 44  1  0  0  0  0
 22 24  1  0  0  0  0
 22 45  1  0  0  0  0
 23 25  1  0  0  0  0
 23 46  1  0  0  0  0
 24 25  2  0  0  0  0
 24 47  1  0  0  0  0
 25 48  1  0  0  0  0
 26 27  1  0  0  0  0
 26 28  2  0  0  0  0
 26 49  1  0  0  0  0
 27 29  2  0  0  0  0
 27 50  1  0  0  0  0
 28 30  1  0  0  0  0
 28 51  1  0  0  0  0
 29 31  1  0  0  0  0
 30 31  2  0  0  0  0
 30 52  1  0  0  0  0
 31 53  1  0  0  0  0
M  END
> <NMREDATA_VERSION>
1.1

> <NMREDATA_LEVEL>
0

> <NMREDATA_FORMULA>
C25H22F4P2

> <NMREDATA_SMILES>
FP(c1ccccc1)(c1ccccc1)(CP(c1ccccc1)(c1ccccc1)(F)F)F

> <NMREDATA_ASSIGNMENT>
P1, -45.20, 1
P10, -45.20, 10

> <NMREDATA_1D_31P>
-45.20, L=P1
-45.20, L=P10

$$$$
