
 OpenBabel04012508592D

 24 24  0  0  0  0  0  0  0  0999 V2000
   11.2231   -6.1917    0.0000 N   0  0  0  0  0  0  0  0  0  0  0  0
    9.1055   -6.1741    0.0000 P   0  0  0  0  0  0  0  0  0  0  0  0
    8.0435   -8.0135    0.0000 N   0  0  0  0  0  0  0  0  0  0  0  0
    5.9212   -8.0187    0.0000 P   0  0  0  0  0  0  0  0  0  0  0  0
    4.8592   -9.8581    0.0000 N   0  0  0  0  0  0  0  0  0  0  0  0
   12.2662  -11.6820    0.0000 P   0  0  0  0  0  0  0  0  0  0  0  0
   12.2651   -7.9983    0.0000 P   0  0  0  0  0  0  0  0  0  0  0  0
   11.2031   -9.8377    0.0000 N   0  0  0  0  0  0  0  0  0  0  0  0
   11.2042  -13.5214    0.0000 N   0  0  0  0  0  0  0  0  0  0  0  0
    9.0866  -13.5037    0.0000 P   0  0  0  0  0  0  0  0  0  0  0  0
   14.3803   -7.9884    0.0000 F   0  0  0  0  0  0  0  0  0  0  0  0
   13.3141   -6.1616    0.0000 F   0  0  0  0  0  0  0  0  0  0  0  0
    8.0527   -4.3395    0.0000 F   0  0  0  0  0  0  0  0  0  0  0  0
   10.1679   -4.3451    0.0000 F   0  0  0  0  0  0  0  0  0  0  0  0
    3.8060   -8.0205    0.0000 F   0  0  0  0  0  0  0  0  0  0  0  0
    4.8621   -6.1878    0.0000 F   0  0  0  0  0  0  0  0  0  0  0  0
    8.0244  -15.3328    0.0000 F   0  0  0  0  0  0  0  0  0  0  0  0
   10.1396  -15.3381    0.0000 F   0  0  0  0  0  0  0  0  0  0  0  0
   14.3813  -11.6838    0.0000 F   0  0  0  0  0  0  0  0  0  0  0  0
   13.3222  -13.5147    0.0000 F   0  0  0  0  0  0  0  0  0  0  0  0
    8.0445  -11.6971    0.0000 N   0  0  0  0  0  0  0  0  0  0  0  0
    5.9269  -11.6794    0.0000 P   0  0  0  0  0  0  0  0  0  0  0  0
    5.4642  -13.5243    0.0000 F   0  0  0  0  0  0  0  0  0  0  0  0
    4.0541  -11.7136    0.0000 F   0  0  0  0  0  0  0  0  0  0  0  0
  1  2  1  0  0  0  0
  1  7  2  0  0  0  0
  2  3  2  0  0  0  0
  2 13  1  0  0  0  0
  2 14  1  0  0  0  0
  3  4  1  0  0  0  0
  4  5  2  0  0  0  0
  4 15  1  0  0  0  0
  4 16  1  0  0  0  0
  6  9  1  0  0  0  0
  6 19  1  0  0  0  0
  6 20  1  0  0  0  0
  7  8  1  0  0  0  0
  7 11  1  0  0  0  0
  7 12  1  0  0  0  0
  8  6  2  0  0  0  0
  9 10  2  0  0  0  0
 10 17  1  0  0  0  0
 10 18  1  0  0  0  0
 10 21  1  0  0  0  0
 21 22  2  0  0  0  0
 22  5  1  0  0  0  0
 22 23  1  0  0  0  0
 22 24  1  0  0  0  0
M  END
> <NMREDATA_VERSION>
1.1

> <NMREDATA_LEVEL>
0

> <NMREDATA_FORMULA>
F12N6P6

> <NMREDATA_SMILES>
FP1(=NP(=NP(=NP(=NP(=NP(=N1)(F)F)(F)F)(F)F)(F)F)(F)F)F

> <NMREDATA_ASSIGNMENT>
P2, -22.00, 2
P4, -22.00, 4
P6, -22.00, 6
P7, -22.00, 7
P10, -22.00, 10
P22, -22.00, 22

> <NMREDATA_1D_31P>
-22.00, L=P2
-22.00, L=P4
-22.00, L=P6
-22.00, L=P7
-22.00, L=P10
-22.00, L=P22

$$$$
