
 OpenBabel08102311342D

 44 46  0  0  0  0  0  0  0  0999 V2000
    9.7099  -11.9742    0.0000 P    0  0  0  0  0  0  0  0  0  0  0  0
    9.4334  -10.6732    0.0000 Cl   0  0  0  0  0  0  0  0  0  0  0  0
    8.4450  -12.3852    0.0000 Cl   0  0  0  0  0  0  0  0  0  0  0  0
    8.5581  -11.3092    0.0000 Cl   0  0  0  0  0  0  0  0  0  0  0  0
   10.9946  -11.6299    0.0000 N    0  0  0  0  0  0  0  0  0  0  0  0
   12.9896   -8.1745    0.0000 C    0  0  0  0  0  0  0  0  0  0  0  0
   13.6546   -9.3263    0.0000 C    0  0  0  0  0  0  0  0  0  0  0  0
   11.6596   -8.1745    0.0000 C    0  0  0  0  0  0  0  0  0  0  0  0
   12.9896  -10.4781    0.0000 C    0  0  0  0  0  0  0  0  0  0  0  0
   10.9946   -9.3263    0.0000 C    0  0  0  0  0  0  0  0  0  0  0  0
   11.6596  -10.4781    0.0000 C    0  0  0  0  0  0  0  0  0  0  0  0
   11.3389  -12.9146    0.0000 P    0  0  0  0  0  0  0  0  0  0  0  0
   11.6154  -14.2156    0.0000 Cl   0  0  0  0  0  0  0  0  0  0  0  0
   12.6038  -12.5036    0.0000 Cl   0  0  0  0  0  0  0  0  0  0  0  0
   12.4907  -13.5796    0.0000 Cl   0  0  0  0  0  0  0  0  0  0  0  0
   10.0542  -13.2588    0.0000 N    0  0  0  0  0  0  0  0  0  0  0  0
    8.0592  -16.7143    0.0000 C    0  0  0  0  0  0  0  0  0  0  0  0
    7.3942  -15.5625    0.0000 C    0  0  0  0  0  0  0  0  0  0  0  0
    9.3892  -16.7143    0.0000 C    0  0  0  0  0  0  0  0  0  0  0  0
    8.0592  -14.4107    0.0000 C    0  0  0  0  0  0  0  0  0  0  0  0
   10.0542  -15.5625    0.0000 C    0  0  0  0  0  0  0  0  0  0  0  0
    9.3892  -14.4107    0.0000 C    0  0  0  0  0  0  0  0  0  0  0  0
   10.9946   -7.0227    0.0000 C    0  0  0  0  0  0  0  0  0  0  0  0
   14.9846   -9.3263    0.0000 C    0  0  0  0  0  0  0  0  0  0  0  0
   10.0542  -17.8661    0.0000 C    0  0  0  0  0  0  0  0  0  0  0  0
    6.0642  -15.5625    0.0000 C    0  0  0  0  0  0  0  0  0  0  0  0
   13.5056   -7.2808    0.0000 H    0  0  0  0  0  0  0  0  0  0  0  0
   13.5056  -11.3718    0.0000 H    0  0  0  0  0  0  0  0  0  0  0  0
    9.9626   -9.3263    0.0000 H    0  0  0  0  0  0  0  0  0  0  0  0
    7.5432  -17.6080    0.0000 H    0  0  0  0  0  0  0  0  0  0  0  0
    7.5432  -13.5170    0.0000 H    0  0  0  0  0  0  0  0  0  0  0  0
   11.0862  -15.5625    0.0000 H    0  0  0  0  0  0  0  0  0  0  0  0
   11.5296   -6.0961    0.0000 H    0  0  0  0  0  0  0  0  0  0  0  0
    9.9246   -7.0227    0.0000 H    0  0  0  0  0  0  0  0  0  0  0  0
   10.4596   -6.0961    0.0000 H    0  0  0  0  0  0  0  0  0  0  0  0
   15.5196  -10.2529    0.0000 H    0  0  0  0  0  0  0  0  0  0  0  0
   15.5196   -8.3997    0.0000 H    0  0  0  0  0  0  0  0  0  0  0  0
   16.0546   -9.3263    0.0000 H    0  0  0  0  0  0  0  0  0  0  0  0
    9.5192  -18.7927    0.0000 H    0  0  0  0  0  0  0  0  0  0  0  0
   11.1242  -17.8661    0.0000 H    0  0  0  0  0  0  0  0  0  0  0  0
   10.5892  -18.7927    0.0000 H    0  0  0  0  0  0  0  0  0  0  0  0
    5.5292  -14.6359    0.0000 H    0  0  0  0  0  0  0  0  0  0  0  0
    5.5292  -16.4891    0.0000 H    0  0  0  0  0  0  0  0  0  0  0  0
    4.9942  -15.5625    0.0000 H    0  0  0  0  0  0  0  0  0  0  0  0
  1  2  1  0  0  0  0
  1  3  1  0  0  0  0
  1  4  1  0  0  0  0
  1  5  1  0  0  0  0
  1 16  1  0  0  0  0
  5 11  1  0  0  0  0
  5 12  1  0  0  0  0
  6  7  1  0  0  0  0
  6  8  2  0  0  0  0
  6 27  1  0  0  0  0
  7  9  2  0  0  0  0
  7 24  1  0  0  0  0
  8 10  1  0  0  0  0
  8 23  1  0  0  0  0
  9 11  1  0  0  0  0
  9 28  1  0  0  0  0
 10 11  2  0  0  0  0
 10 29  1  0  0  0  0
 12 13  1  0  0  0  0
 12 14  1  0  0  0  0
 12 15  1  0  0  0  0
 12 16  1  0  0  0  0
 16 22  1  0  0  0  0
 17 18  1  0  0  0  0
 17 19  2  0  0  0  0
 17 30  1  0  0  0  0
 18 20  2  0  0  0  0
 18 26  1  0  0  0  0
 19 21  1  0  0  0  0
 19 25  1  0  0  0  0
 20 22  1  0  0  0  0
 20 31  1  0  0  0  0
 21 22  2  0  0  0  0
 21 32  1  0  0  0  0
 23 33  1  0  0  0  0
 23 34  1  0  0  0  0
 23 35  1  0  0  0  0
 24 36  1  0  0  0  0
 24 37  1  0  0  0  0
 24 38  1  0  0  0  0
 25 39  1  0  0  0  0
 25 40  1  0  0  0  0
 25 41  1  0  0  0  0
 26 42  1  0  0  0  0
 26 43  1  0  0  0  0
 26 44  1  0  0  0  0
M  END
> <NMREDATA_VERSION>
1.1

> <NMREDATA_LEVEL>
0

> <NMREDATA_FORMULA>
C16H18Cl6N2P2

> <NMREDATA_SMILES>
Cc1cc(cc(c1)C)N1P(Cl)(Cl)(Cl)N(P1(Cl)(Cl)Cl)c1cc(C)cc(c1)C

> <NMREDATA_ASSIGNMENT>
P1, -82.50, 1
P12, -82.50, 12

> <NMREDATA_1D_31P>
-82.50, L=P1
-82.50, L=P12

$$$$
