
 OpenBabel04012508592D

 36 36  0  0  0  0  0  0  0  0999 V2000
   19.6277   -9.9430    0.0000 N    0  0  0  0  0  0  0  0  0  0  0  0
   19.6277  -11.2730    0.0000 P    0  0  3  0  0  0  0  0  0  0  0  0
   18.4757   -9.2780    0.0000 P    0  0  3  0  0  0  0  0  0  0  0  0
   18.4757  -11.9380    0.0000 N    0  0  0  0  0  0  0  0  0  0  0  0
   17.3240   -9.9430    0.0000 N    0  0  0  0  0  0  0  0  0  0  0  0
   17.3240  -11.2730    0.0000 P    0  0  3  0  0  0  0  0  0  0  0  0
   20.2385  -12.3706    0.0000 Cl   0  0  0  0  0  0  0  0  0  0  0  0
   20.5910  -10.5919    0.0000 N    0  0  0  0  0  0  0  0  0  0  0  0
   17.3861   -8.0121    0.0000 N    0  0  0  0  0  0  0  0  0  0  0  0
   16.8734  -12.4988    0.0000 Cl   0  0  0  0  0  0  0  0  0  0  0  0
   15.8640  -11.5054    0.0000 N    0  0  0  0  0  0  0  0  0  0  0  0
   19.7257   -8.0121    0.0000 Cl   0  0  0  0  0  0  0  0  0  0  0  0
   17.1778   -6.4096    0.0000 C    0  0  0  0  0  0  0  0  0  0  0  0
   22.4337  -10.2714    0.0000 C    0  0  0  0  0  0  0  0  0  0  0  0
   15.7677   -7.9640    0.0000 C    0  0  0  0  0  0  0  0  0  0  0  0
   21.6806  -11.5694    0.0000 C    0  0  0  0  0  0  0  0  0  0  0  0
   14.3736  -10.4637    0.0000 C    0  0  0  0  0  0  0  0  0  0  0  0
   14.5659  -12.6270    0.0000 C    0  0  0  0  0  0  0  0  0  0  0  0
   18.0278   -5.7596    0.0000 H    0  0  0  0  0  0  0  0  0  0  0  0
   16.1899   -5.9985    0.0000 H    0  0  0  0  0  0  0  0  0  0  0  0
   17.0399   -5.3485    0.0000 H    0  0  0  0  0  0  0  0  0  0  0  0
   23.1196  -11.0927    0.0000 H    0  0  0  0  0  0  0  0  0  0  0  0
   22.8020   -9.2668    0.0000 H    0  0  0  0  0  0  0  0  0  0  0  0
   23.4879  -10.0880    0.0000 H    0  0  0  0  0  0  0  0  0  0  0  0
   15.2605   -7.0219    0.0000 H    0  0  0  0  0  0  0  0  0  0  0  0
   15.2054   -8.8743    0.0000 H    0  0  0  0  0  0  0  0  0  0  0  0
   14.6982   -7.9322    0.0000 H    0  0  0  0  0  0  0  0  0  0  0  0
   21.4600  -12.6164    0.0000 H    0  0  0  0  0  0  0  0  0  0  0  0
   22.6976  -11.2369    0.0000 H    0  0  0  0  0  0  0  0  0  0  0  0
   22.4771  -12.2839    0.0000 H    0  0  0  0  0  0  0  0  0  0  0  0
   14.4659   -9.3977    0.0000 H    0  0  0  0  0  0  0  0  0  0  0  0
   13.4042  -10.9167    0.0000 H    0  0  0  0  0  0  0  0  0  0  0  0
   13.4966   -9.8507    0.0000 H    0  0  0  0  0  0  0  0  0  0  0  0
   13.5552  -12.2756    0.0000 H    0  0  0  0  0  0  0  0  0  0  0  0
   14.7669  -13.6779    0.0000 H    0  0  0  0  0  0  0  0  0  0  0  0
   13.7563  -13.3266    0.0000 H    0  0  0  0  0  0  0  0  0  0  0  0
  1  2  2  0  0  0  0
  1  3  1  0  0  0  0
  2  4  1  0  0  0  0
  2  7  1  0  0  0  0
  2  8  1  0  0  0  0
  3  5  2  0  0  0  0
  3 12  1  0  0  0  0
  4  6  2  0  0  0  0
  5  6  1  0  0  0  0
  6 10  1  0  0  0  0
  8 14  1  0  0  0  0
  8 16  1  0  0  0  0
  9  3  1  0  0  0  0
  9 13  1  0  0  0  0
  9 15  1  0  0  0  0
 11  6  1  0  0  0  0
 11 17  1  0  0  0  0
 11 18  1  0  0  0  0
 13 19  1  0  0  0  0
 13 20  1  0  0  0  0
 13 21  1  0  0  0  0
 14 22  1  0  0  0  0
 14 23  1  0  0  0  0
 14 24  1  0  0  0  0
 15 25  1  0  0  0  0
 15 26  1  0  0  0  0
 15 27  1  0  0  0  0
 16 28  1  0  0  0  0
 16 29  1  0  0  0  0
 16 30  1  0  0  0  0
 17 31  1  0  0  0  0
 17 32  1  0  0  0  0
 17 33  1  0  0  0  0
 18 34  1  0  0  0  0
 18 35  1  0  0  0  0
 18 36  1  0  0  0  0
M  END
> <NMREDATA_VERSION>
1.1

> <NMREDATA_LEVEL>
0

> <NMREDATA_FORMULA>
C6H18Cl3N6P3

> <NMREDATA_SMILES>
CN(P1(=NP(=NP(=N1)(Cl)N(C)C)(Cl)N(C)C)Cl)C

> <NMREDATA_ASSIGNMENT>
P2, 27.70, 2
P3, 27.70, 3
P6, 27.70, 6

> <NMREDATA_1D_31P>
27.70, L=P2
27.70, L=P3
27.70, L=P6

$$$$
