
 OpenBabel04012508592D

 80 80  0  0  0  0  0  0  0  0999 V2000
   13.9383  -12.3478    0.0000 P   0  0  0  0  0  0  0  0  0  0  0  0
   13.6935   -8.1038    0.0000 P   0  0  0  0  0  0  0  0  0  0  0  0
   11.9166   -8.0947    0.0000 N   0  0  0  0  0  0  0  0  0  0  0  0
    9.9494   -8.0444    0.0000 P   0  0  0  0  0  0  0  0  0  0  0  0
   10.0425  -10.1853    0.0000 N   0  0  0  0  0  0  0  0  0  0  0  0
   10.1078  -12.1727    0.0000 P   0  0  0  0  0  0  0  0  0  0  0  0
   11.9499  -12.3105    0.0000 N   0  0  0  0  0  0  0  0  0  0  0  0
   13.8038  -10.1882    0.0000 N   0  0  0  0  0  0  0  0  0  0  0  0
    8.9625   -7.1406    0.0000 N   0  0  0  0  0  0  0  0  0  0  0  0
    8.2466  -12.7525    0.0000 N   0  0  0  0  0  0  0  0  0  0  0  0
   14.1201  -13.9245    0.0000 N   0  0  0  0  0  0  0  0  0  0  0  0
   10.0343  -13.9215    0.0000 N   0  0  0  0  0  0  0  0  0  0  0  0
   15.7902  -11.9559    0.0000 N   0  0  0  0  0  0  0  0  0  0  0  0
    7.9821   -8.5728    0.0000 N   0  0  0  0  0  0  0  0  0  0  0  0
   13.7166   -6.6660    0.0000 N   0  0  0  0  0  0  0  0  0  0  0  0
   15.2710   -8.2204    0.0000 N   0  0  0  0  0  0  0  0  0  0  0  0
    8.6690   -5.7046    0.0000 C   0  0  0  0  0  0  0  0  0  0  0  0
    7.2108   -7.7557    0.0000 C   0  0  0  0  0  0  0  0  0  0  0  0
   14.1653   -5.5604    0.0000 C   0  0  0  0  0  0  0  0  0  0  0  0
   15.8799   -9.0216    0.0000 C   0  0  0  0  0  0  0  0  0  0  0  0
   16.1683  -10.8643    0.0000 C   0  0  0  0  0  0  0  0  0  0  0  0
   15.3190  -14.5659    0.0000 C   0  0  0  0  0  0  0  0  0  0  0  0
   10.4637  -14.8223    0.0000 C   0  0  0  0  0  0  0  0  0  0  0  0
    6.9064  -11.2649    0.0000 C   0  0  0  0  0  0  0  0  0  0  0  0
   10.1560   -4.3866    0.0000 C   0  0  0  0  0  0  0  0  0  0  0  0
   15.5696   -5.7824    0.0000 C   0  0  0  0  0  0  0  0  0  0  0  0
   15.4638   -9.9619    0.0000 C   0  0  0  0  0  0  0  0  0  0  0  0
   17.5068  -10.9304    0.0000 C   0  0  0  0  0  0  0  0  0  0  0  0
   15.2874  -15.5573    0.0000 C   0  0  0  0  0  0  0  0  0  0  0  0
    9.6864  -15.6612    0.0000 C   0  0  0  0  0  0  0  0  0  0  0  0
    7.2131  -10.2431    0.0000 C   0  0  0  0  0  0  0  0  0  0  0  0
    7.2280   -7.0090    0.0000 C   0  0  0  0  0  0  0  0  0  0  0  0
    8.0750   -7.6434    0.0000 H   0  0  0  0  0  0  0  0  0  0  0  0
    7.9768  -13.7362    0.0000 H   0  0  0  0  0  0  0  0  0  0  0  0
   13.2766  -14.4981    0.0000 H   0  0  0  0  0  0  0  0  0  0  0  0
    9.0349  -14.1256    0.0000 H   0  0  0  0  0  0  0  0  0  0  0  0
   16.4650  -12.7208    0.0000 H   0  0  0  0  0  0  0  0  0  0  0  0
    7.7042   -9.5542    0.0000 H   0  0  0  0  0  0  0  0  0  0  0  0
   12.7171   -6.4626    0.0000 H   0  0  0  0  0  0  0  0  0  0  0  0
   15.7576   -7.3240    0.0000 H   0  0  0  0  0  0  0  0  0  0  0  0
    7.6540   -5.3660    0.0000 H   0  0  0  0  0  0  0  0  0  0  0  0
    8.4547   -4.6563    0.0000 H   0  0  0  0  0  0  0  0  0  0  0  0
    6.2120   -8.1394    0.0000 H   0  0  0  0  0  0  0  0  0  0  0  0
    6.3359   -7.1396    0.0000 H   0  0  0  0  0  0  0  0  0  0  0  0
   13.6390   -4.6288    0.0000 H   0  0  0  0  0  0  0  0  0  0  0  0
   14.7753   -4.6813    0.0000 H   0  0  0  0  0  0  0  0  0  0  0  0
   16.9426   -8.8971    0.0000 H   0  0  0  0  0  0  0  0  0  0  0  0
   16.5149   -9.8828    0.0000 H   0  0  0  0  0  0  0  0  0  0  0  0
   15.5694   -9.9776    0.0000 H   0  0  0  0  0  0  0  0  0  0  0  0
   16.6935   -9.9321    0.0000 H   0  0  0  0  0  0  0  0  0  0  0  0
   16.2455  -14.0307    0.0000 H   0  0  0  0  0  0  0  0  0  0  0  0
   16.2371  -15.1155    0.0000 H   0  0  0  0  0  0  0  0  0  0  0  0
   11.5215  -14.9835    0.0000 H   0  0  0  0  0  0  0  0  0  0  0  0
   10.8166  -15.8324    0.0000 H   0  0  0  0  0  0  0  0  0  0  0  0
    5.8624  -11.4993    0.0000 H   0  0  0  0  0  0  0  0  0  0  0  0
    6.1770  -10.4820    0.0000 H   0  0  0  0  0  0  0  0  0  0  0  0
   11.1710   -4.7252    0.0000 H   0  0  0  0  0  0  0  0  0  0  0  0
    9.9417   -3.3383    0.0000 H   0  0  0  0  0  0  0  0  0  0  0  0
   10.9567   -3.6769    0.0000 H   0  0  0  0  0  0  0  0  0  0  0  0
   15.9533   -6.7812    0.0000 H   0  0  0  0  0  0  0  0  0  0  0  0
   16.2427   -4.9507    0.0000 H   0  0  0  0  0  0  0  0  0  0  0  0
   16.6265   -5.9495    0.0000 H   0  0  0  0  0  0  0  0  0  0  0  0
   14.3999  -10.0762    0.0000 H   0  0  0  0  0  0  0  0  0  0  0  0
   16.0947  -10.8261    0.0000 H   0  0  0  0  0  0  0  0  0  0  0  0
   15.0308  -10.9404    0.0000 H   0  0  0  0  0  0  0  0  0  0  0  0
   17.9954  -11.8823    0.0000 H   0  0  0  0  0  0  0  0  0  0  0  0
   18.0869  -10.0313    0.0000 H   0  0  0  0  0  0  0  0  0  0  0  0
   18.5755  -10.9832    0.0000 H   0  0  0  0  0  0  0  0  0  0  0  0
   14.3442  -16.0625    0.0000 H   0  0  0  0  0  0  0  0  0  0  0  0
   16.1965  -16.1215    0.0000 H   0  0  0  0  0  0  0  0  0  0  0  0
   15.2533  -16.6268    0.0000 H   0  0  0  0  0  0  0  0  0  0  0  0
    8.6431  -15.4238    0.0000 H   0  0  0  0  0  0  0  0  0  0  0  0
   10.0025  -16.6834    0.0000 H   0  0  0  0  0  0  0  0  0  0  0  0
    8.9592  -16.4461    0.0000 H   0  0  0  0  0  0  0  0  0  0  0  0
    8.2544   -9.9971    0.0000 H   0  0  0  0  0  0  0  0  0  0  0  0
    6.4794   -9.4643    0.0000 H   0  0  0  0  0  0  0  0  0  0  0  0
    7.5207   -9.2183    0.0000 H   0  0  0  0  0  0  0  0  0  0  0  0
    8.1667   -6.4955    0.0000 H   0  0  0  0  0  0  0  0  0  0  0  0
    6.3139   -6.4528    0.0000 H   0  0  0  0  0  0  0  0  0  0  0  0
    7.2526   -5.9393    0.0000 H   0  0  0  0  0  0  0  0  0  0  0  0
  1  7  1  0  0  0  0
  1  8  2  0  0  0  0
  1 11  1  0  0  0  0
  1 13  1  0  0  0  0
  2  3  2  0  0  0  0
  2 15  1  0  0  0  0
  2 16  1  0  0  0  0
  3  4  1  0  0  0  0
  4  5  2  0  0  0  0
  4  9  1  0  0  0  0
  4 14  1  0  0  0  0
  5  6  1  0  0  0  0
  6  7  2  0  0  0  0
  6 10  1  0  0  0  0
  6 12  1  0  0  0  0
  8  2  1  0  0  0  0
  9 17  1  0  0  0  0
  9 33  1  0  0  0  0
 10 24  1  0  0  0  0
 10 34  1  0  0  0  0
 11 22  1  0  0  0  0
 11 35  1  0  0  0  0
 12 23  1  0  0  0  0
 12 36  1  0  0  0  0
 13 21  1  0  0  0  0
 13 37  1  0  0  0  0
 14 18  1  0  0  0  0
 14 38  1  0  0  0  0
 15 19  1  0  0  0  0
 15 39  1  0  0  0  0
 16 20  1  0  0  0  0
 16 40  1  0  0  0  0
 17 25  1  0  0  0  0
 17 41  1  0  0  0  0
 17 42  1  0  0  0  0
 18 32  1  0  0  0  0
 18 43  1  0  0  0  0
 18 44  1  0  0  0  0
 19 26  1  0  0  0  0
 19 45  1  0  0  0  0
 19 46  1  0  0  0  0
 20 27  1  0  0  0  0
 20 47  1  0  0  0  0
 20 48  1  0  0  0  0
 21 28  1  0  0  0  0
 21 49  1  0  0  0  0
 21 50  1  0  0  0  0
 22 29  1  0  0  0  0
 22 51  1  0  0  0  0
 22 52  1  0  0  0  0
 23 30  1  0  0  0  0
 23 53  1  0  0  0  0
 23 54  1  0  0  0  0
 24 31  1  0  0  0  0
 24 55  1  0  0  0  0
 24 56  1  0  0  0  0
 25 57  1  0  0  0  0
 25 58  1  0  0  0  0
 25 59  1  0  0  0  0
 26 60  1  0  0  0  0
 26 61  1  0  0  0  0
 26 62  1  0  0  0  0
 27 63  1  0  0  0  0
 27 64  1  0  0  0  0
 27 65  1  0  0  0  0
 28 66  1  0  0  0  0
 28 67  1  0  0  0  0
 28 68  1  0  0  0  0
 29 69  1  0  0  0  0
 29 70  1  0  0  0  0
 29 71  1  0  0  0  0
 30 72  1  0  0  0  0
 30 73  1  0  0  0  0
 30 74  1  0  0  0  0
 31 75  1  0  0  0  0
 31 76  1  0  0  0  0
 31 77  1  0  0  0  0
 32 78  1  0  0  0  0
 32 79  1  0  0  0  0
 32 80  1  0  0  0  0
M  END
> <NMREDATA_VERSION>
1.1

> <NMREDATA_LEVEL>
0

> <NMREDATA_FORMULA>
C16H48N12P4

> <NMREDATA_SMILES>
CCNP1(=NP(=NP(=NP(=N1)(NCC)NCC)(NCC)NCC)(NCC)NCC)NCC

> <NMREDATA_ASSIGNMENT>
P1, 4.30, 1
P2, 4.30, 2
P4, 4.30, 4
P6, 4.30, 6

> <NMREDATA_1D_31P>
4.30, L=P1
4.30, L=P2
4.30, L=P4
4.30, L=P6

$$$$
