
 OpenBabel08102311302D

 55 54  0  0  0  0  0  0  0  0999 V2000
   12.9675  -14.7852    0.0000 P    0  0  0  0  0  0  0  0  0  0  0  0
   14.2975  -14.7852    0.0000 C    0  0  0  0  0  0  0  0  0  0  0  0
   14.2975  -16.1152    0.0000 C    0  0  0  0  0  0  0  0  0  0  0  0
   14.2975  -13.4552    0.0000 C    0  0  0  0  0  0  0  0  0  0  0  0
   15.6275  -14.7852    0.0000 C    0  0  0  0  0  0  0  0  0  0  0  0
   12.3025  -13.6333    0.0000 C    0  0  0  0  0  0  0  0  0  0  0  0
   13.4543  -12.9683    0.0000 C    0  0  0  0  0  0  0  0  0  0  0  0
   11.1507  -14.2983    0.0000 C    0  0  0  0  0  0  0  0  0  0  0  0
   11.6375  -12.4815    0.0000 C    0  0  0  0  0  0  0  0  0  0  0  0
   17.1348  -17.9550    0.0000 Te   0  0  0  0  0  0  0  0  0  0  0  0
   20.1717  -14.6743    0.0000 P    0  0  0  0  0  0  0  0  0  0  0  0
   21.5017  -14.6743    0.0000 C    0  0  0  0  0  0  0  0  0  0  0  0
   21.5017  -16.0043    0.0000 C    0  0  0  0  0  0  0  0  0  0  0  0
   21.5017  -13.3443    0.0000 C    0  0  0  0  0  0  0  0  0  0  0  0
   22.8317  -14.6743    0.0000 C    0  0  0  0  0  0  0  0  0  0  0  0
   19.5067  -13.5225    0.0000 C    0  0  0  0  0  0  0  0  0  0  0  0
   20.6585  -12.8575    0.0000 C    0  0  0  0  0  0  0  0  0  0  0  0
   18.3549  -14.1875    0.0000 C    0  0  0  0  0  0  0  0  0  0  0  0
   18.8417  -12.3707    0.0000 C    0  0  0  0  0  0  0  0  0  0  0  0
   13.3709  -16.6502    0.0000 H    0  0  0  0  0  0  0  0  0  0  0  0
   15.2241  -16.6502    0.0000 H    0  0  0  0  0  0  0  0  0  0  0  0
   14.2975  -17.1852    0.0000 H    0  0  0  0  0  0  0  0  0  0  0  0
   15.2241  -12.9202    0.0000 H    0  0  0  0  0  0  0  0  0  0  0  0
   13.3709  -12.9202    0.0000 H    0  0  0  0  0  0  0  0  0  0  0  0
   14.2975  -12.3852    0.0000 H    0  0  0  0  0  0  0  0  0  0  0  0
   16.1625  -15.7118    0.0000 H    0  0  0  0  0  0  0  0  0  0  0  0
   16.1625  -13.8586    0.0000 H    0  0  0  0  0  0  0  0  0  0  0  0
   16.6975  -14.7852    0.0000 H    0  0  0  0  0  0  0  0  0  0  0  0
   14.3809  -13.5033    0.0000 H    0  0  0  0  0  0  0  0  0  0  0  0
   13.4543  -11.8983    0.0000 H    0  0  0  0  0  0  0  0  0  0  0  0
   14.3809  -12.4333    0.0000 H    0  0  0  0  0  0  0  0  0  0  0  0
   10.2241  -13.7633    0.0000 H    0  0  0  0  0  0  0  0  0  0  0  0
   11.1507  -15.3683    0.0000 H    0  0  0  0  0  0  0  0  0  0  0  0
   10.2241  -14.8333    0.0000 H    0  0  0  0  0  0  0  0  0  0  0  0
   12.1725  -11.5549    0.0000 H    0  0  0  0  0  0  0  0  0  0  0  0
   10.5675  -12.4815    0.0000 H    0  0  0  0  0  0  0  0  0  0  0  0
   11.1025  -11.5549    0.0000 H    0  0  0  0  0  0  0  0  0  0  0  0
   20.5751  -16.5393    0.0000 H    0  0  0  0  0  0  0  0  0  0  0  0
   22.4283  -16.5393    0.0000 H    0  0  0  0  0  0  0  0  0  0  0  0
   21.5017  -17.0743    0.0000 H    0  0  0  0  0  0  0  0  0  0  0  0
   22.4283  -12.8093    0.0000 H    0  0  0  0  0  0  0  0  0  0  0  0
   20.5751  -12.8093    0.0000 H    0  0  0  0  0  0  0  0  0  0  0  0
   21.5017  -12.2743    0.0000 H    0  0  0  0  0  0  0  0  0  0  0  0
   23.3667  -15.6009    0.0000 H    0  0  0  0  0  0  0  0  0  0  0  0
   23.3667  -13.7477    0.0000 H    0  0  0  0  0  0  0  0  0  0  0  0
   23.9017  -14.6743    0.0000 H    0  0  0  0  0  0  0  0  0  0  0  0
   21.5851  -13.3925    0.0000 H    0  0  0  0  0  0  0  0  0  0  0  0
   20.6585  -11.7875    0.0000 H    0  0  0  0  0  0  0  0  0  0  0  0
   21.5851  -12.3225    0.0000 H    0  0  0  0  0  0  0  0  0  0  0  0
   17.4283  -13.6525    0.0000 H    0  0  0  0  0  0  0  0  0  0  0  0
   18.3549  -15.2575    0.0000 H    0  0  0  0  0  0  0  0  0  0  0  0
   17.4283  -14.7225    0.0000 H    0  0  0  0  0  0  0  0  0  0  0  0
   19.3767  -11.4441    0.0000 H    0  0  0  0  0  0  0  0  0  0  0  0
   17.7717  -12.3707    0.0000 H    0  0  0  0  0  0  0  0  0  0  0  0
   18.3067  -11.4441    0.0000 H    0  0  0  0  0  0  0  0  0  0  0  0
  1  2  1  0  0  0  0
  1  6  1  0  0  0  0
  1 10  1  0  0  0  0
  2  3  1  0  0  0  0
  2  4  1  0  0  0  0
  2  5  1  0  0  0  0
  3 20  1  0  0  0  0
  3 21  1  0  0  0  0
  3 22  1  0  0  0  0
  4 23  1  0  0  0  0
  4 24  1  0  0  0  0
  4 25  1  0  0  0  0
  5 26  1  0  0  0  0
  5 27  1  0  0  0  0
  5 28  1  0  0  0  0
  6  7  1  0  0  0  0
  6  8  1  0  0  0  0
  6  9  1  0  0  0  0
  7 29  1  0  0  0  0
  7 30  1  0  0  0  0
  7 31  1  0  0  0  0
  8 32  1  0  0  0  0
  8 33  1  0  0  0  0
  8 34  1  0  0  0  0
  9 35  1  0  0  0  0
  9 36  1  0  0  0  0
  9 37  1  0  0  0  0
 10 11  1  0  0  0  0
 11 12  1  0  0  0  0
 11 16  1  0  0  0  0
 12 13  1  0  0  0  0
 12 14  1  0  0  0  0
 12 15  1  0  0  0  0
 13 38  1  0  0  0  0
 13 39  1  0  0  0  0
 13 40  1  0  0  0  0
 14 41  1  0  0  0  0
 14 42  1  0  0  0  0
 14 43  1  0  0  0  0
 15 44  1  0  0  0  0
 15 45  1  0  0  0  0
 15 46  1  0  0  0  0
 16 17  1  0  0  0  0
 16 18  1  0  0  0  0
 16 19  1  0  0  0  0
 17 47  1  0  0  0  0
 17 48  1  0  0  0  0
 17 49  1  0  0  0  0
 18 50  1  0  0  0  0
 18 51  1  0  0  0  0
 18 52  1  0  0  0  0
 19 53  1  0  0  0  0
 19 54  1  0  0  0  0
 19 55  1  0  0  0  0
M  END
> <NMREDATA_VERSION>
1.1

> <NMREDATA_LEVEL>
0

> <NMREDATA_FORMULA>
C16H36P2Te

> <NMREDATA_SMILES>
CC(P(C(C)(C)C)[Te]P(C(C)(C)C)C(C)(C)C)(C)C

> <NMREDATA_ASSIGNMENT>
P1, 85.50, 1
P11, 85.50, 11

> <NMREDATA_1D_31P>
85.50, L=P1
85.50, L=P11

$$$$
