
 OpenBabel08102311312D

 64 64  0  0  0  0  0  0  0  0999 V2000
    5.9122  -12.8821    0.0000 C   0  0  0  0  0  0  0  0  0  0  0  0
    5.9122  -14.2121    0.0000 C   0  0  0  0  0  0  0  0  0  0  0  0
    4.7604  -12.2171    0.0000 C   0  0  0  0  0  0  0  0  0  0  0  0
    4.7604  -14.8771    0.0000 C   0  0  0  0  0  0  0  0  0  0  0  0
    3.6086  -12.8821    0.0000 C   0  0  0  0  0  0  0  0  0  0  0  0
    3.6086  -14.2121    0.0000 C   0  0  0  0  0  0  0  0  0  0  0  0
    7.0640  -12.2171    0.0000 P   0  0  0  0  0  0  0  0  0  0  0  0
    7.0640  -14.8771    0.0000 P   0  0  0  0  0  0  0  0  0  0  0  0
    6.5119  -15.9019    0.0000 C   0  0  0  0  0  0  0  0  0  0  0  0
    8.5905  -15.0152    0.0000 C   0  0  0  0  0  0  0  0  0  0  0  0
    5.4944  -15.9745    0.0000 C   0  0  0  0  0  0  0  0  0  0  0  0
    6.1994  -16.5850    0.0000 C   0  0  0  0  0  0  0  0  0  0  0  0
    6.9262  -16.4251    0.0000 C   0  0  0  0  0  0  0  0  0  0  0  0
    8.3143  -15.7638    0.0000 C   0  0  0  0  0  0  0  0  0  0  0  0
    8.7649  -14.3393    0.0000 C   0  0  0  0  0  0  0  0  0  0  0  0
    9.2228  -15.3132    0.0000 C   0  0  0  0  0  0  0  0  0  0  0  0
    6.8826  -11.1124    0.0000 C   0  0  0  0  0  0  0  0  0  0  0  0
    6.1631  -11.1342    0.0000 C   0  0  0  0  0  0  0  0  0  0  0  0
    6.7009  -10.4074    0.0000 C   0  0  0  0  0  0  0  0  0  0  0  0
    7.4931  -10.8798    0.0000 C   0  0  0  0  0  0  0  0  0  0  0  0
    8.6995  -12.3407    0.0000 C   0  0  0  0  0  0  0  0  0  0  0  0
    8.7140  -11.4903    0.0000 C   0  0  0  0  0  0  0  0  0  0  0  0
    8.5542  -12.9875    0.0000 C   0  0  0  0  0  0  0  0  0  0  0  0
    9.4481  -12.5151    0.0000 C   0  0  0  0  0  0  0  0  0  0  0  0
    4.7604  -11.1851    0.0000 H   0  0  0  0  0  0  0  0  0  0  0  0
    4.7604  -15.9091    0.0000 H   0  0  0  0  0  0  0  0  0  0  0  0
    2.7149  -12.3661    0.0000 H   0  0  0  0  0  0  0  0  0  0  0  0
    2.7149  -14.7281    0.0000 H   0  0  0  0  0  0  0  0  0  0  0  0
    4.8948  -15.0883    0.0000 H   0  0  0  0  0  0  0  0  0  0  0  0
    5.0267  -16.9369    0.0000 H   0  0  0  0  0  0  0  0  0  0  0  0
    4.4271  -16.0507    0.0000 H   0  0  0  0  0  0  0  0  0  0  0  0
    5.1342  -16.6860    0.0000 H   0  0  0  0  0  0  0  0  0  0  0  0
    6.8195  -17.4570    0.0000 H   0  0  0  0  0  0  0  0  0  0  0  0
    5.7543  -17.5580    0.0000 H   0  0  0  0  0  0  0  0  0  0  0  0
    6.5319  -17.4198    0.0000 H   0  0  0  0  0  0  0  0  0  0  0  0
    7.9848  -16.2693    0.0000 H   0  0  0  0  0  0  0  0  0  0  0  0
    7.5905  -17.2640    0.0000 H   0  0  0  0  0  0  0  0  0  0  0  0
    7.2597  -15.9450    0.0000 H   0  0  0  0  0  0  0  0  0  0  0  0
    8.9985  -16.5865    0.0000 H   0  0  0  0  0  0  0  0  0  0  0  0
    7.9439  -16.7677    0.0000 H   0  0  0  0  0  0  0  0  0  0  0  0
    9.7958  -14.0528    0.0000 H   0  0  0  0  0  0  0  0  0  0  0  0
    8.0013  -13.5898    0.0000 H   0  0  0  0  0  0  0  0  0  0  0  0
    9.0322  -13.3032    0.0000 H   0  0  0  0  0  0  0  0  0  0  0  0
    9.3117  -16.3795    0.0000 H   0  0  0  0  0  0  0  0  0  0  0  0
   10.1018  -14.7031    0.0000 H   0  0  0  0  0  0  0  0  0  0  0  0
   10.1907  -15.7694    0.0000 H   0  0  0  0  0  0  0  0  0  0  0  0
    5.6003  -10.2242    0.0000 H   0  0  0  0  0  0  0  0  0  0  0  0
    5.6564  -12.0766    0.0000 H   0  0  0  0  0  0  0  0  0  0  0  0
    5.0936  -11.1666    0.0000 H   0  0  0  0  0  0  0  0  0  0  0  0
    7.4647   -9.6581    0.0000 H   0  0  0  0  0  0  0  0  0  0  0  0
    5.6701  -10.1206    0.0000 H   0  0  0  0  0  0  0  0  0  0  0  0
    6.4339   -9.3713    0.0000 H   0  0  0  0  0  0  0  0  0  0  0  0
    8.3230  -11.5552    0.0000 H   0  0  0  0  0  0  0  0  0  0  0  0
    7.6631   -9.8234    0.0000 H   0  0  0  0  0  0  0  0  0  0  0  0
    8.4930  -10.4988    0.0000 H   0  0  0  0  0  0  0  0  0  0  0  0
    9.6496  -10.9712    0.0000 H   0  0  0  0  0  0  0  0  0  0  0  0
    7.7966  -10.9396    0.0000 H   0  0  0  0  0  0  0  0  0  0  0  0
    8.7322  -10.4205    0.0000 H   0  0  0  0  0  0  0  0  0  0  0  0
    7.5328  -13.3064    0.0000 H   0  0  0  0  0  0  0  0  0  0  0  0
    9.3411  -13.7126    0.0000 H   0  0  0  0  0  0  0  0  0  0  0  0
    8.3197  -14.0315    0.0000 H   0  0  0  0  0  0  0  0  0  0  0  0
    9.7589  -13.5390    0.0000 H   0  0  0  0  0  0  0  0  0  0  0  0
   10.1794  -11.7340    0.0000 H   0  0  0  0  0  0  0  0  0  0  0  0
   10.4902  -12.7579    0.0000 H   0  0  0  0  0  0  0  0  0  0  0  0
  1  2  1  0  0  0  0
  1  3  2  0  0  0  0
  1  7  1  0  0  0  0
  2  4  2  0  0  0  0
  2  8  1  0  0  0  0
  3  5  1  0  0  0  0
  3 25  1  0  0  0  0
  4  6  1  0  0  0  0
  4 26  1  0  0  0  0
  5  6  2  0  0  0  0
  5 27  1  0  0  0  0
  6 28  1  0  0  0  0
  7 17  1  0  0  0  0
  7 21  1  0  0  0  0
  8  9  1  0  0  0  0
  8 10  1  0  0  0  0
  9 11  1  0  0  0  0
  9 12  1  0  0  0  0
  9 13  1  0  0  0  0
 10 14  1  0  0  0  0
 10 15  1  0  0  0  0
 10 16  1  0  0  0  0
 11 29  1  0  0  0  0
 11 30  1  0  0  0  0
 11 31  1  0  0  0  0
 12 32  1  0  0  0  0
 12 33  1  0  0  0  0
 12 34  1  0  0  0  0
 13 35  1  0  0  0  0
 13 36  1  0  0  0  0
 13 37  1  0  0  0  0
 14 38  1  0  0  0  0
 14 39  1  0  0  0  0
 14 40  1  0  0  0  0
 15 41  1  0  0  0  0
 15 42  1  0  0  0  0
 15 43  1  0  0  0  0
 16 44  1  0  0  0  0
 16 45  1  0  0  0  0
 16 46  1  0  0  0  0
 17 18  1  0  0  0  0
 17 19  1  0  0  0  0
 17 20  1  0  0  0  0
 18 47  1  0  0  0  0
 18 48  1  0  0  0  0
 18 49  1  0  0  0  0
 19 50  1  0  0  0  0
 19 51  1  0  0  0  0
 19 52  1  0  0  0  0
 20 53  1  0  0  0  0
 20 54  1  0  0  0  0
 20 55  1  0  0  0  0
 21 22  1  0  0  0  0
 21 23  1  0  0  0  0
 21 24  1  0  0  0  0
 22 56  1  0  0  0  0
 22 57  1  0  0  0  0
 22 58  1  0  0  0  0
 23 59  1  0  0  0  0
 23 60  1  0  0  0  0
 23 61  1  0  0  0  0
 24 62  1  0  0  0  0
 24 63  1  0  0  0  0
 24 64  1  0  0  0  0
M  END
> <NMREDATA_VERSION>
1.1

> <NMREDATA_LEVEL>
0

> <NMREDATA_FORMULA>
C22H40P2

> <NMREDATA_SMILES>
CC(P(C(C)(C)C)c1ccccc1P(C(C)(C)C)C(C)(C)C)(C)C

> <NMREDATA_ASSIGNMENT>
P7, 6.00, 7
P8, 6.00, 8

> <NMREDATA_1D_31P>
6.00, L=P7
6.00, L=P8

$$$$
