
 OpenBabel08102311302D

 54 57  0  0  0  0  0  0  0  0999 V2000
   13.1227  -12.5685    0.0000 P   0  0  0  0  0  0  0  0  0  0  0  0
   14.4527  -12.5685    0.0000 C   0  0  0  0  0  0  0  0  0  0  0  0
   15.1177  -11.4167    0.0000 C   0  0  0  0  0  0  0  0  0  0  0  0
   15.1177  -13.7204    0.0000 C   0  0  0  0  0  0  0  0  0  0  0  0
   16.4478  -11.4167    0.0000 C   0  0  0  0  0  0  0  0  0  0  0  0
   16.4477  -13.7204    0.0000 C   0  0  0  0  0  0  0  0  0  0  0  0
   17.1127  -12.5685    0.0000 C   0  0  0  0  0  0  0  0  0  0  0  0
   12.4577  -11.4167    0.0000 C   0  0  0  0  0  0  0  0  0  0  0  0
   11.1277  -11.4167    0.0000 C   0  0  0  0  0  0  0  0  0  0  0  0
   13.1227  -10.2648    0.0000 C   0  0  0  0  0  0  0  0  0  0  0  0
   10.4627  -10.2648    0.0000 C   0  0  0  0  0  0  0  0  0  0  0  0
   12.4577   -9.1130    0.0000 C   0  0  0  0  0  0  0  0  0  0  0  0
   11.1277   -9.1130    0.0000 C   0  0  0  0  0  0  0  0  0  0  0  0
   12.8123  -14.5857    0.0000 N   0  0  0  0  0  0  0  0  0  0  0  0
   10.0415  -14.1867    0.0000 C   0  0  0  0  0  0  0  0  0  0  0  0
    9.5475  -12.9518    0.0000 C   0  0  0  0  0  0  0  0  0  0  0  0
   14.5192  -16.1817    0.0000 P   0  0  0  0  0  0  0  0  0  0  0  0
   14.2182  -17.4772    0.0000 C   0  0  0  0  0  0  0  0  0  0  0  0
   15.1897  -18.3856    0.0000 C   0  0  0  0  0  0  0  0  0  0  0  0
   12.9457  -17.8643    0.0000 C   0  0  0  0  0  0  0  0  0  0  0  0
   14.8886  -19.6811    0.0000 C   0  0  0  0  0  0  0  0  0  0  0  0
   12.6448  -19.1598    0.0000 C   0  0  0  0  0  0  0  0  0  0  0  0
   13.6162  -20.0682    0.0000 C   0  0  0  0  0  0  0  0  0  0  0  0
   15.7916  -15.7945    0.0000 C   0  0  0  0  0  0  0  0  0  0  0  0
   16.0925  -14.4990    0.0000 C   0  0  0  0  0  0  0  0  0  0  0  0
   16.7631  -16.7029    0.0000 C   0  0  0  0  0  0  0  0  0  0  0  0
   17.3650  -14.1119    0.0000 C   0  0  0  0  0  0  0  0  0  0  0  0
   18.0355  -16.3158    0.0000 C   0  0  0  0  0  0  0  0  0  0  0  0
   18.3365  -15.0203    0.0000 C   0  0  0  0  0  0  0  0  0  0  0  0
   14.6017  -10.5230    0.0000 H   0  0  0  0  0  0  0  0  0  0  0  0
   14.6017  -14.6141    0.0000 H   0  0  0  0  0  0  0  0  0  0  0  0
   16.9638  -10.5230    0.0000 H   0  0  0  0  0  0  0  0  0  0  0  0
   16.9637  -14.6141    0.0000 H   0  0  0  0  0  0  0  0  0  0  0  0
   18.1447  -12.5685    0.0000 H   0  0  0  0  0  0  0  0  0  0  0  0
   10.6117  -12.3104    0.0000 H   0  0  0  0  0  0  0  0  0  0  0  0
   14.1547  -10.2648    0.0000 H   0  0  0  0  0  0  0  0  0  0  0  0
    9.4307  -10.2648    0.0000 H   0  0  0  0  0  0  0  0  0  0  0  0
   12.9737   -8.2193    0.0000 H   0  0  0  0  0  0  0  0  0  0  0  0
   10.6117   -8.2193    0.0000 H   0  0  0  0  0  0  0  0  0  0  0  0
    9.3799  -15.0276    0.0000 H   0  0  0  0  0  0  0  0  0  0  0  0
    8.9824  -14.0342    0.0000 H   0  0  0  0  0  0  0  0  0  0  0  0
   10.2092  -12.1109    0.0000 H   0  0  0  0  0  0  0  0  0  0  0  0
    8.4884  -12.7992    0.0000 H   0  0  0  0  0  0  0  0  0  0  0  0
    9.1501  -11.9583    0.0000 H   0  0  0  0  0  0  0  0  0  0  0  0
   16.1770  -18.0853    0.0000 H   0  0  0  0  0  0  0  0  0  0  0  0
   12.1919  -17.1595    0.0000 H   0  0  0  0  0  0  0  0  0  0  0  0
   15.6424  -20.3860    0.0000 H   0  0  0  0  0  0  0  0  0  0  0  0
   11.6575  -19.4602    0.0000 H   0  0  0  0  0  0  0  0  0  0  0  0
   13.3827  -21.0734    0.0000 H   0  0  0  0  0  0  0  0  0  0  0  0
   15.3387  -13.7942    0.0000 H   0  0  0  0  0  0  0  0  0  0  0  0
   16.5296  -17.7081    0.0000 H   0  0  0  0  0  0  0  0  0  0  0  0
   17.5985  -13.1067    0.0000 H   0  0  0  0  0  0  0  0  0  0  0  0
   18.7893  -17.0207    0.0000 H   0  0  0  0  0  0  0  0  0  0  0  0
   19.3238  -14.7199    0.0000 H   0  0  0  0  0  0  0  0  0  0  0  0
  1  2  1  0  0  0  0
  1  8  1  0  0  0  0
  1 14  1  0  0  0  0
  2  3  1  0  0  0  0
  2  4  2  0  0  0  0
  3  5  2  0  0  0  0
  3 30  1  0  0  0  0
  4  6  1  0  0  0  0
  4 31  1  0  0  0  0
  5  7  1  0  0  0  0
  5 32  1  0  0  0  0
  6  7  2  0  0  0  0
  6 33  1  0  0  0  0
  7 34  1  0  0  0  0
  8  9  1  0  0  0  0
  8 10  2  0  0  0  0
  9 11  2  0  0  0  0
  9 35  1  0  0  0  0
 10 12  1  0  0  0  0
 10 36  1  0  0  0  0
 11 13  1  0  0  0  0
 11 37  1  0  0  0  0
 12 13  2  0  0  0  0
 12 38  1  0  0  0  0
 13 39  1  0  0  0  0
 14 15  1  0  0  0  0
 14 17  1  0  0  0  0
 15 16  1  0  0  0  0
 15 40  1  0  0  0  0
 15 41  1  0  0  0  0
 16 42  1  0  0  0  0
 16 43  1  0  0  0  0
 16 44  1  0  0  0  0
 17 18  1  0  0  0  0
 17 24  1  0  0  0  0
 18 19  1  0  0  0  0
 18 20  2  0  0  0  0
 19 21  2  0  0  0  0
 19 45  1  0  0  0  0
 20 22  1  0  0  0  0
 20 46  1  0  0  0  0
 21 23  1  0  0  0  0
 21 47  1  0  0  0  0
 22 23  2  0  0  0  0
 22 48  1  0  0  0  0
 23 49  1  0  0  0  0
 24 25  1  0  0  0  0
 24 26  2  0  0  0  0
 25 27  2  0  0  0  0
 25 50  1  0  0  0  0
 26 28  1  0  0  0  0
 26 51  1  0  0  0  0
 27 29  1  0  0  0  0
 27 52  1  0  0  0  0
 28 29  2  0  0  0  0
 28 53  1  0  0  0  0
 29 54  1  0  0  0  0
M  END
> <NMREDATA_VERSION>
1.1

> <NMREDATA_LEVEL>
0

> <NMREDATA_FORMULA>
C26H25NP2

> <NMREDATA_SMILES>
CCN(P(c1ccccc1)c1ccccc1)P(c1ccccc1)c1ccccc1

> <NMREDATA_ASSIGNMENT>
P1, 61.00, 1
P17, 61.00, 17

> <NMREDATA_1D_31P>
61.00, L=P1
61.00, L=P17

$$$$
