
 OpenBabel08102311322D

 34 35  0  0  0  0  0  0  0  0999 V2000
   12.0181   -7.4031    0.0000 P   0  0  3  0  0  0  0  0  0  0  0  0
   13.2199   -3.6535    0.0000 O   0  0  0  0  0  0  0  0  0  0  0  0
    9.3581   -8.5569    0.0000 N   0  0  0  0  0  0  0  0  0  0  0  0
    9.2619   -9.7106    0.0000 C   0  0  0  0  0  0  0  0  0  0  0  0
   11.2169  -10.7682    0.0000 N   0  0  0  0  0  0  0  0  0  0  0  0
   10.3195  -12.2745    0.0000 C   0  0  0  0  0  0  0  0  0  0  0  0
   17.3221   -7.8678    0.0000 N   0  0  0  0  0  0  0  0  0  0  0  0
   15.4793  -11.5694    0.0000 N   0  0  0  0  0  0  0  0  0  0  0  0
   14.6300  -13.8288    0.0000 N   0  0  0  0  0  0  0  0  0  0  0  0
   19.8378  -10.4157    0.0000 N   0  0  0  0  0  0  0  0  0  0  0  0
   16.6811  -12.7231    0.0000 C   0  0  0  0  0  0  0  0  0  0  0  0
   19.9821   -7.6114    0.0000 C   0  0  0  0  0  0  0  0  0  0  0  0
   21.0877  -10.6240    0.0000 C   0  0  0  0  0  0  0  0  0  0  0  0
   16.4247  -14.2775    0.0000 C   0  0  0  0  0  0  0  0  0  0  0  0
   13.2680  -16.1202    0.0000 P   0  0  3  0  0  0  0  0  0  0  0  0
   12.8193  -17.7707    0.0000 O   0  0  0  0  0  0  0  0  0  0  0  0
    8.2940  -10.1667    0.0000 H   0  0  0  0  0  0  0  0  0  0  0  0
   10.1409  -10.3207    0.0000 H   0  0  0  0  0  0  0  0  0  0  0  0
    9.1730  -10.7769    0.0000 H   0  0  0  0  0  0  0  0  0  0  0  0
    9.2496  -12.2598    0.0000 H   0  0  0  0  0  0  0  0  0  0  0  0
   10.8418  -13.2084    0.0000 H   0  0  0  0  0  0  0  0  0  0  0  0
    9.7719  -13.1937    0.0000 H   0  0  0  0  0  0  0  0  0  0  0  0
   16.4253  -13.7621    0.0000 H   0  0  0  0  0  0  0  0  0  0  0  0
   17.7088  -12.4251    0.0000 H   0  0  0  0  0  0  0  0  0  0  0  0
   17.4530  -13.4641    0.0000 H   0  0  0  0  0  0  0  0  0  0  0  0
   20.6035   -8.4824    0.0000 H   0  0  0  0  0  0  0  0  0  0  0  0
   20.4257   -6.6377    0.0000 H   0  0  0  0  0  0  0  0  0  0  0  0
   21.0472   -7.5087    0.0000 H   0  0  0  0  0  0  0  0  0  0  0  0
   21.4631  -11.6260    0.0000 H   0  0  0  0  0  0  0  0  0  0  0  0
   21.7677   -9.7979    0.0000 H   0  0  0  0  0  0  0  0  0  0  0  0
   22.1431  -10.7999    0.0000 H   0  0  0  0  0  0  0  0  0  0  0  0
   16.7190  -15.3062    0.0000 H   0  0  0  0  0  0  0  0  0  0  0  0
   17.1685  -13.5083    0.0000 H   0  0  0  0  0  0  0  0  0  0  0  0
   17.4627  -14.5370    0.0000 H   0  0  0  0  0  0  0  0  0  0  0  0
  1  2  2  0  0  0  0
  1  3  1  0  0  0  0
  1  7  1  0  0  0  0
  1  8  1  0  0  0  0
  3  4  1  0  0  0  0
  3  5  1  0  0  0  0
  4 17  1  0  0  0  0
  4 18  1  0  0  0  0
  4 19  1  0  0  0  0
  5  6  1  0  0  0  0
  5 15  1  0  0  0  0
  6 20  1  0  0  0  0
  6 21  1  0  0  0  0
  6 22  1  0  0  0  0
  7 10  1  0  0  0  0
  7 12  1  0  0  0  0
  8  9  1  0  0  0  0
  8 11  1  0  0  0  0
  9 14  1  0  0  0  0
  9 15  1  0  0  0  0
 10 13  1  0  0  0  0
 10 15  1  0  0  0  0
 11 23  1  0  0  0  0
 11 24  1  0  0  0  0
 11 25  1  0  0  0  0
 12 26  1  0  0  0  0
 12 27  1  0  0  0  0
 12 28  1  0  0  0  0
 13 29  1  0  0  0  0
 13 30  1  0  0  0  0
 13 31  1  0  0  0  0
 14 32  1  0  0  0  0
 14 33  1  0  0  0  0
 14 34  1  0  0  0  0
 15 16  2  0  0  0  0
M  END
> <NMREDATA_VERSION>
1.1

> <NMREDATA_LEVEL>
0

> <NMREDATA_FORMULA>
C6H18N6O2P2

> <NMREDATA_SMILES>
CN1N(C)P2(=O)N(N(P1(=O)N(N2C)C)C)C

> <NMREDATA_ASSIGNMENT>
P1, 8.60, 1
P15, 8.60, 15

> <NMREDATA_1D_31P>
8.60, L=P1
8.60, L=P15

$$$$
