
 OpenBabel08102311342D

 72 75  0  0  0  0  0  0  0  0999 V2000
   16.8574  -18.3957    0.0000 P   0  0  0  0  0  0  0  0  0  0  0  0
   17.4342  -23.6836    0.0000 C   0  0  0  0  0  0  0  0  0  0  0  0
   13.1431  -26.8272    0.0000 C   0  0  0  0  0  0  0  0  0  0  0  0
   13.7196  -32.1152    0.0000 O   0  0  0  0  0  0  0  0  0  0  0  0
    8.2751  -24.6831    0.0000 O   0  0  0  0  0  0  0  0  0  0  0  0
    3.9841  -27.8266    0.0000 C   0  0  0  0  0  0  0  0  0  0  0  0
   21.7287  -24.7412    0.0000 C   0  0  0  0  0  0  0  0  0  0  0  0
   23.2096  -29.8502    0.0000 C   0  0  0  0  0  0  0  0  0  0  0  0
   28.3745  -31.1226    0.0000 O   0  0  0  0  0  0  0  0  0  0  0  0
   19.5258  -33.6875    0.0000 O   0  0  0  0  0  0  0  0  0  0  0  0
   21.0067  -38.7964    0.0000 C   0  0  0  0  0  0  0  0  0  0  0  0
   25.7027  -22.4658    0.0000 P   0  0  0  0  0  0  0  0  0  0  0  0
   23.7958  -20.3025    0.0000 O   0  0  0  0  0  0  0  0  0  0  0  0
   25.5424  -16.0562    0.0000 C   0  0  0  0  0  0  0  0  0  0  0  0
   31.6297  -23.2590    0.0000 C   0  0  0  0  0  0  0  0  0  0  0  0
   31.6297  -24.5890    0.0000 C   0  0  0  0  0  0  0  0  0  0  0  0
   30.4778  -22.5940    0.0000 C   0  0  0  0  0  0  0  0  0  0  0  0
   30.4778  -25.2540    0.0000 C   0  0  0  0  0  0  0  0  0  0  0  0
   29.3260  -23.2590    0.0000 C   0  0  0  0  0  0  0  0  0  0  0  0
   29.3260  -24.5890    0.0000 C   0  0  0  0  0  0  0  0  0  0  0  0
   30.5721  -19.4933    0.0000 C   0  0  0  0  0  0  0  0  0  0  0  0
   30.5721  -20.8233    0.0000 C   0  0  0  0  0  0  0  0  0  0  0  0
   29.4202  -18.8283    0.0000 C   0  0  0  0  0  0  0  0  0  0  0  0
   29.4202  -21.4883    0.0000 C   0  0  0  0  0  0  0  0  0  0  0  0
   28.2684  -19.4933    0.0000 C   0  0  0  0  0  0  0  0  0  0  0  0
   28.2684  -20.8233    0.0000 C   0  0  0  0  0  0  0  0  0  0  0  0
   13.1398  -18.4918    0.0000 O   0  0  0  0  0  0  0  0  0  0  0  0
   14.3576  -23.1068    0.0000 C   0  0  0  0  0  0  0  0  0  0  0  0
   13.4122  -15.1107    0.0000 C   0  0  0  0  0  0  0  0  0  0  0  0
   18.9725  -16.0562    0.0000 C   0  0  0  0  0  0  0  0  0  0  0  0
   21.2762  -14.7261    0.0000 C   0  0  0  0  0  0  0  0  0  0  0  0
   21.2762  -16.0562    0.0000 C   0  0  0  0  0  0  0  0  0  0  0  0
   20.1243  -14.0611    0.0000 C   0  0  0  0  0  0  0  0  0  0  0  0
   20.1243  -16.7211    0.0000 C   0  0  0  0  0  0  0  0  0  0  0  0
   18.9725  -14.7261    0.0000 C   0  0  0  0  0  0  0  0  0  0  0  0
   14.5641  -13.1157    0.0000 C   0  0  0  0  0  0  0  0  0  0  0  0
   14.5641  -14.4457    0.0000 C   0  0  0  0  0  0  0  0  0  0  0  0
   13.4122  -12.4507    0.0000 C   0  0  0  0  0  0  0  0  0  0  0  0
   12.2604  -13.1157    0.0000 C   0  0  0  0  0  0  0  0  0  0  0  0
   12.2604  -14.4457    0.0000 C   0  0  0  0  0  0  0  0  0  0  0  0
    3.0049  -27.3952    0.0000 H   0  0  0  0  0  0  0  0  0  0  0  0
    4.1001  -28.8903    0.0000 H   0  0  0  0  0  0  0  0  0  0  0  0
    3.1209  -28.4589    0.0000 H   0  0  0  0  0  0  0  0  0  0  0  0
   20.2656  -39.5682    0.0000 H   0  0  0  0  0  0  0  0  0  0  0  0
   22.0457  -39.0523    0.0000 H   0  0  0  0  0  0  0  0  0  0  0  0
   21.3046  -39.8241    0.0000 H   0  0  0  0  0  0  0  0  0  0  0  0
   26.6029  -15.9139    0.0000 H   0  0  0  0  0  0  0  0  0  0  0  0
   24.8889  -15.2089    0.0000 H   0  0  0  0  0  0  0  0  0  0  0  0
   25.9494  -15.0666    0.0000 H   0  0  0  0  0  0  0  0  0  0  0  0
   32.5234  -22.7430    0.0000 H   0  0  0  0  0  0  0  0  0  0  0  0
   32.5234  -25.1050    0.0000 H   0  0  0  0  0  0  0  0  0  0  0  0
   30.4778  -21.5620    0.0000 H   0  0  0  0  0  0  0  0  0  0  0  0
   30.4778  -26.2860    0.0000 H   0  0  0  0  0  0  0  0  0  0  0  0
   28.4323  -25.1050    0.0000 H   0  0  0  0  0  0  0  0  0  0  0  0
   31.4658  -18.9773    0.0000 H   0  0  0  0  0  0  0  0  0  0  0  0
   31.4658  -21.3393    0.0000 H   0  0  0  0  0  0  0  0  0  0  0  0
   29.4202  -17.7963    0.0000 H   0  0  0  0  0  0  0  0  0  0  0  0
   29.4202  -22.5203    0.0000 H   0  0  0  0  0  0  0  0  0  0  0  0
   27.3747  -18.9773    0.0000 H   0  0  0  0  0  0  0  0  0  0  0  0
   13.5981  -23.8605    0.0000 H   0  0  0  0  0  0  0  0  0  0  0  0
   15.3901  -23.3877    0.0000 H   0  0  0  0  0  0  0  0  0  0  0  0
   14.6306  -24.1414    0.0000 H   0  0  0  0  0  0  0  0  0  0  0  0
   22.1699  -14.2101    0.0000 H   0  0  0  0  0  0  0  0  0  0  0  0
   22.1699  -16.5722    0.0000 H   0  0  0  0  0  0  0  0  0  0  0  0
   20.1243  -13.0291    0.0000 H   0  0  0  0  0  0  0  0  0  0  0  0
   20.1243  -17.7531    0.0000 H   0  0  0  0  0  0  0  0  0  0  0  0
   18.0788  -14.2101    0.0000 H   0  0  0  0  0  0  0  0  0  0  0  0
   15.4578  -12.5997    0.0000 H   0  0  0  0  0  0  0  0  0  0  0  0
   15.4578  -14.9617    0.0000 H   0  0  0  0  0  0  0  0  0  0  0  0
   13.4122  -11.4187    0.0000 H   0  0  0  0  0  0  0  0  0  0  0  0
   11.3667  -12.5997    0.0000 H   0  0  0  0  0  0  0  0  0  0  0  0
   11.3667  -14.9617    0.0000 H   0  0  0  0  0  0  0  0  0  0  0  0
  1  2  2  0  0  0  0
  1 27  1  0  0  0  0
  1 29  1  0  0  0  0
  1 30  1  0  0  0  0
  2  3  1  0  0  0  0
  2  7  1  0  0  0  0
  3  4  2  0  0  0  0
  3  5  1  0  0  0  0
  5  6  1  0  0  0  0
  6 41  1  0  0  0  0
  6 42  1  0  0  0  0
  6 43  1  0  0  0  0
  7  8  1  0  0  0  0
  7 12  2  0  0  0  0
  8  9  2  0  0  0  0
  8 10  1  0  0  0  0
 10 11  1  0  0  0  0
 11 44  1  0  0  0  0
 11 45  1  0  0  0  0
 11 46  1  0  0  0  0
 12 13  1  0  0  0  0
 12 19  1  0  0  0  0
 12 26  1  0  0  0  0
 13 14  1  0  0  0  0
 14 47  1  0  0  0  0
 14 48  1  0  0  0  0
 14 49  1  0  0  0  0
 15 16  1  0  0  0  0
 15 17  2  0  0  0  0
 15 50  1  0  0  0  0
 16 18  2  0  0  0  0
 16 51  1  0  0  0  0
 17 19  1  0  0  0  0
 17 52  1  0  0  0  0
 18 20  1  0  0  0  0
 18 53  1  0  0  0  0
 19 20  2  0  0  0  0
 20 54  1  0  0  0  0
 21 22  1  0  0  0  0
 21 23  2  0  0  0  0
 21 55  1  0  0  0  0
 22 24  2  0  0  0  0
 22 56  1  0  0  0  0
 23 25  1  0  0  0  0
 23 57  1  0  0  0  0
 24 26  1  0  0  0  0
 24 58  1  0  0  0  0
 25 26  2  0  0  0  0
 25 59  1  0  0  0  0
 27 28  1  0  0  0  0
 28 60  1  0  0  0  0
 28 61  1  0  0  0  0
 28 62  1  0  0  0  0
 29 40  1  0  0  0  0
 31 32  1  0  0  0  0
 31 33  2  0  0  0  0
 31 63  1  0  0  0  0
 32 34  2  0  0  0  0
 32 64  1  0  0  0  0
 33 35  1  0  0  0  0
 33 65  1  0  0  0  0
 34 30  1  0  0  0  0
 34 66  1  0  0  0  0
 35 30  2  0  0  0  0
 35 67  1  0  0  0  0
 36 37  1  0  0  0  0
 36 38  2  0  0  0  0
 36 68  1  0  0  0  0
 37 29  2  0  0  0  0
 37 69  1  0  0  0  0
 38 39  1  0  0  0  0
 38 70  1  0  0  0  0
 39 40  2  0  0  0  0
 39 71  1  0  0  0  0
 40 72  1  0  0  0  0
M  END
> <NMREDATA_VERSION>
1.1

> <NMREDATA_LEVEL>
0

> <NMREDATA_FORMULA>
C32H32O6P2

> <NMREDATA_SMILES>
COC(=O)C(=P(c1ccccc1)(c1ccccc1)OC)C(=P(c1ccccc1)(c1ccccc1)OC)C(=O)OC

> <NMREDATA_ASSIGNMENT>
P1, 66.30, 1
P12, 66.30, 12

> <NMREDATA_1D_31P>
66.30, L=P1
66.30, L=P12

$$$$
