
 OpenBabel08102311322D

 11 10  0  0  0  0  0  0  0  0999 V2000
    9.5183  -13.2199    0.0000 P    0  0  0  0  0  0  0  0  0  0  0  0
    8.4607  -12.7231    0.0000 Cl   0  0  0  0  0  0  0  0  0  0  0  0
    8.2204  -14.5178    0.0000 Cl   0  0  0  0  0  0  0  0  0  0  0  0
    9.4222  -11.3130    0.0000 O    0  0  0  0  0  0  0  0  0  0  0  0
   10.4637  -14.1172    0.0000 C    0  0  0  0  0  0  0  0  0  0  0  0
   11.9700  -13.0757    0.0000 P    0  0  0  0  0  0  0  0  0  0  0  0
   12.2745  -11.3611    0.0000 O    0  0  0  0  0  0  0  0  0  0  0  0
   13.3160  -13.0757    0.0000 Cl   0  0  0  0  0  0  0  0  0  0  0  0
   13.0757  -14.5659    0.0000 Cl   0  0  0  0  0  0  0  0  0  0  0  0
   10.3812  -15.1840    0.0000 H    0  0  0  0  0  0  0  0  0  0  0  0
   11.3915  -14.6503    0.0000 H    0  0  0  0  0  0  0  0  0  0  0  0
  1  2  1  0  0  0  0
  1  3  1  0  0  0  0
  1  4  2  0  0  0  0
  1  5  1  0  0  0  0
  5  6  1  0  0  0  0
  5 10  1  0  0  0  0
  5 11  1  0  0  0  0
  6  7  2  0  0  0  0
  6  8  1  0  0  0  0
  6  9  1  0  0  0  0
M  END
> <NMREDATA_VERSION>
1.1

> <NMREDATA_LEVEL>
0

> <NMREDATA_FORMULA>
CH2Cl4O2P2

> <NMREDATA_SMILES>
ClP(=O)(CP(=O)(Cl)Cl)Cl

> <NMREDATA_ASSIGNMENT>
P1, 20.90, 1
P6, 20.90, 6

> <NMREDATA_1D_31P>
20.90, L=P1
20.90, L=P6

$$$$
