
 OpenBabel08102311312D

 46 46  0  0  0  0  0  0  0  0999 V2000
    3.5749  -10.7268    0.0000 C   0  0  0  0  0  0  0  0  0  0  0  0
    4.7261  -10.0621    0.0000 C   0  0  0  0  0  0  0  0  0  0  0  0
    3.5755  -12.0567    0.0000 C   0  0  0  0  0  0  0  0  0  0  0  0
    5.8777  -10.7275    0.0000 C   0  0  0  0  0  0  0  0  0  0  0  0
    4.7224  -12.7143    0.0000 C   0  0  0  0  0  0  0  0  0  0  0  0
    5.8736  -12.0496    0.0000 C   0  0  0  0  0  0  0  0  0  0  0  0
    7.0207  -12.7071    0.0000 P   0  0  3  0  0  0  0  0  0  0  0  0
    7.0209  -10.0674    0.0000 P   0  0  3  0  0  0  0  0  0  0  0  0
    8.1639  -12.0471    0.0000 C   0  0  0  0  0  0  0  0  0  0  0  0
    8.1680  -10.7249    0.0000 C   0  0  0  0  0  0  0  0  0  0  0  0
    7.0206   -8.7374    0.0000 C   0  0  0  0  0  0  0  0  0  0  0  0
    5.6906   -8.7378    0.0000 C   0  0  0  0  0  0  0  0  0  0  0  0
    8.3504   -8.7369    0.0000 C   0  0  0  0  0  0  0  0  0  0  0  0
    7.0201   -7.4072    0.0000 C   0  0  0  0  0  0  0  0  0  0  0  0
    7.0211  -14.0371    0.0000 C   0  0  0  0  0  0  0  0  0  0  0  0
    5.6912  -14.0377    0.0000 C   0  0  0  0  0  0  0  0  0  0  0  0
    8.3433  -14.0413    0.0000 C   0  0  0  0  0  0  0  0  0  0  0  0
    7.0216  -15.3673    0.0000 C   0  0  0  0  0  0  0  0  0  0  0  0
    2.6810  -10.2110    0.0000 H   0  0  0  0  0  0  0  0  0  0  0  0
    4.7263   -9.0301    0.0000 H   0  0  0  0  0  0  0  0  0  0  0  0
    2.6827  -12.5742    0.0000 H   0  0  0  0  0  0  0  0  0  0  0  0
    4.7240  -13.7463    0.0000 H   0  0  0  0  0  0  0  0  0  0  0  0
    9.0905  -12.5821    0.0000 H   0  0  0  0  0  0  0  0  0  0  0  0
    8.1639  -10.9771    0.0000 H   0  0  0  0  0  0  0  0  0  0  0  0
    9.0906  -11.5121    0.0000 H   0  0  0  0  0  0  0  0  0  0  0  0
    8.1713  -11.7949    0.0000 H   0  0  0  0  0  0  0  0  0  0  0  0
    9.0930  -10.1870    0.0000 H   0  0  0  0  0  0  0  0  0  0  0  0
    9.0963  -11.2570    0.0000 H   0  0  0  0  0  0  0  0  0  0  0  0
    5.1553   -7.8113    0.0000 H   0  0  0  0  0  0  0  0  0  0  0  0
    5.1559   -9.6646    0.0000 H   0  0  0  0  0  0  0  0  0  0  0  0
    4.6206   -8.7381    0.0000 H   0  0  0  0  0  0  0  0  0  0  0  0
    8.8857   -9.6633    0.0000 H   0  0  0  0  0  0  0  0  0  0  0  0
    8.8851   -7.8101    0.0000 H   0  0  0  0  0  0  0  0  0  0  0  0
    9.4204   -8.7365    0.0000 H   0  0  0  0  0  0  0  0  0  0  0  0
    7.9465   -6.8719    0.0000 H   0  0  0  0  0  0  0  0  0  0  0  0
    6.0933   -6.8725    0.0000 H   0  0  0  0  0  0  0  0  0  0  0  0
    7.0197   -6.3372    0.0000 H   0  0  0  0  0  0  0  0  0  0  0  0
    5.1558  -13.1113    0.0000 H   0  0  0  0  0  0  0  0  0  0  0  0
    5.1566  -14.9646    0.0000 H   0  0  0  0  0  0  0  0  0  0  0  0
    4.6212  -14.0382    0.0000 H   0  0  0  0  0  0  0  0  0  0  0  0
    8.8754  -14.9696    0.0000 H   0  0  0  0  0  0  0  0  0  0  0  0
    8.8812  -13.1164    0.0000 H   0  0  0  0  0  0  0  0  0  0  0  0
    9.4133  -14.0447    0.0000 H   0  0  0  0  0  0  0  0  0  0  0  0
    6.0952  -15.9026    0.0000 H   0  0  0  0  0  0  0  0  0  0  0  0
    7.9484  -15.9020    0.0000 H   0  0  0  0  0  0  0  0  0  0  0  0
    7.0220  -16.4373    0.0000 H   0  0  0  0  0  0  0  0  0  0  0  0
  1  2  1  0  0  0  0
  1  3  2  0  0  0  0
  1 19  1  0  0  0  0
  2  4  2  0  0  0  0
  2 20  1  0  0  0  0
  3  5  1  0  0  0  0
  3 21  1  0  0  0  0
  4  6  1  0  0  0  0
  4  8  1  0  0  0  0
  5  6  2  0  0  0  0
  5 22  1  0  0  0  0
  6  7  1  0  0  0  0
  7  9  1  0  0  0  0
  7 15  1  0  0  0  0
  8 10  1  0  0  0  0
  8 11  1  0  0  0  0
  9 23  1  0  0  0  0
  9 24  1  0  0  0  0
  9 25  1  0  0  0  0
 10 26  1  0  0  0  0
 10 27  1  0  0  0  0
 10 28  1  0  0  0  0
 11 12  1  0  0  0  0
 11 13  1  0  0  0  0
 11 14  1  0  0  0  0
 12 29  1  0  0  0  0
 12 30  1  0  0  0  0
 12 31  1  0  0  0  0
 13 32  1  0  0  0  0
 13 33  1  0  0  0  0
 13 34  1  0  0  0  0
 14 35  1  0  0  0  0
 14 36  1  0  0  0  0
 14 37  1  0  0  0  0
 15 16  1  0  0  0  0
 15 17  1  0  0  0  0
 15 18  1  0  0  0  0
 16 38  1  0  0  0  0
 16 39  1  0  0  0  0
 16 40  1  0  0  0  0
 17 41  1  0  0  0  0
 17 42  1  0  0  0  0
 17 43  1  0  0  0  0
 18 44  1  0  0  0  0
 18 45  1  0  0  0  0
 18 46  1  0  0  0  0
M  END
> <NMREDATA_VERSION>
1.1

> <NMREDATA_LEVEL>
0

> <NMREDATA_FORMULA>
C16H28P2

> <NMREDATA_SMILES>
CP(C(C)(C)C)c1ccccc1P(C(C)(C)C)C

> <NMREDATA_ASSIGNMENT>
P7, -23.30, 7
P8, -23.30, 8

> <NMREDATA_1D_31P>
-23.30, L=P7
-23.30, L=P8

$$$$
