
 OpenBabel08102311302D

124126  0  0  0  0  0  0  0  0999 V2000
   19.3285  -17.2457    0.0000 C   0  0  0  0  0  0  0  0  0  0  0  0
   19.3285  -18.5757    0.0000 C   0  0  0  0  0  0  0  0  0  0  0  0
   18.1766  -16.5807    0.0000 C   0  0  0  0  0  0  0  0  0  0  0  0
   18.1766  -19.2407    0.0000 C   0  0  0  0  0  0  0  0  0  0  0  0
   17.0248  -17.2457    0.0000 C   0  0  0  0  0  0  0  0  0  0  0  0
   17.0248  -18.5757    0.0000 C   0  0  0  0  0  0  0  0  0  0  0  0
   19.0182   -4.1008    0.0000 C   0  0  0  0  0  0  0  0  0  0  0  0
   19.0182   -5.4308    0.0000 C   0  0  0  0  0  0  0  0  0  0  0  0
   17.8663   -3.4358    0.0000 C   0  0  0  0  0  0  0  0  0  0  0  0
   17.8663   -6.0958    0.0000 C   0  0  0  0  0  0  0  0  0  0  0  0
   16.7145   -4.1008    0.0000 C   0  0  0  0  0  0  0  0  0  0  0  0
   16.7145   -5.4308    0.0000 C   0  0  0  0  0  0  0  0  0  0  0  0
   13.8985  -11.5267    0.0000 N   0  0  0  0  0  0  0  0  0  0  0  0
   17.5560   -9.1992    0.0000 P   0  0  3  0  0  0  0  0  0  0  0  0
   21.6568  -11.5932    0.0000 N   0  0  0  0  0  0  0  0  0  0  0  0
   17.9107  -13.9207    0.0000 P   0  0  3  0  0  0  0  0  0  0  0  0
   26.0667  -11.5325    0.0000 C   0  0  0  0  0  0  0  0  0  0  0  0
   26.1274  -15.9424    0.0000 C   0  0  0  0  0  0  0  0  0  0  0  0
   26.0061   -7.1226    0.0000 C   0  0  0  0  0  0  0  0  0  0  0  0
   30.4767  -11.4718    0.0000 C   0  0  0  0  0  0  0  0  0  0  0  0
    9.4886  -11.5900    0.0000 C   0  0  0  0  0  0  0  0  0  0  0  0
    9.4252   -7.1802    0.0000 C   0  0  0  0  0  0  0  0  0  0  0  0
    9.5520  -15.9999    0.0000 C   0  0  0  0  0  0  0  0  0  0  0  0
    5.0787  -11.6534    0.0000 C   0  0  0  0  0  0  0  0  0  0  0  0
   20.1700   -6.0959    0.0000 C   0  0  0  0  0  0  0  0  0  0  0  0
   19.5049   -7.2477    0.0000 C   0  0  0  0  0  0  0  0  0  0  0  0
   20.8350   -4.9441    0.0000 C   0  0  0  0  0  0  0  0  0  0  0  0
   21.3218   -6.7609    0.0000 C   0  0  0  0  0  0  0  0  0  0  0  0
   17.8662   -2.1058    0.0000 C   0  0  0  0  0  0  0  0  0  0  0  0
   19.1962   -2.1058    0.0000 C   0  0  0  0  0  0  0  0  0  0  0  0
   16.5362   -2.1059    0.0000 C   0  0  0  0  0  0  0  0  0  0  0  0
   17.8662   -0.7758    0.0000 C   0  0  0  0  0  0  0  0  0  0  0  0
   15.5627   -6.0958    0.0000 C   0  0  0  0  0  0  0  0  0  0  0  0
   14.8977   -4.9440    0.0000 C   0  0  0  0  0  0  0  0  0  0  0  0
   16.2276   -7.2476    0.0000 C   0  0  0  0  0  0  0  0  0  0  0  0
   14.4108   -6.7608    0.0000 C   0  0  0  0  0  0  0  0  0  0  0  0
   20.4803  -16.5807    0.0000 C   0  0  0  0  0  0  0  0  0  0  0  0
   21.1453  -17.7325    0.0000 C   0  0  0  0  0  0  0  0  0  0  0  0
   19.8153  -15.4288    0.0000 C   0  0  0  0  0  0  0  0  0  0  0  0
   21.6321  -15.9156    0.0000 C   0  0  0  0  0  0  0  0  0  0  0  0
   15.8730  -16.5807    0.0000 C   0  0  0  0  0  0  0  0  0  0  0  0
   16.5380  -15.4288    0.0000 C   0  0  0  0  0  0  0  0  0  0  0  0
   15.2080  -17.7325    0.0000 C   0  0  0  0  0  0  0  0  0  0  0  0
   14.7212  -15.9157    0.0000 C   0  0  0  0  0  0  0  0  0  0  0  0
   18.1766  -20.5707    0.0000 C   0  0  0  0  0  0  0  0  0  0  0  0
   16.8466  -20.5706    0.0000 C   0  0  0  0  0  0  0  0  0  0  0  0
   19.5066  -20.5707    0.0000 C   0  0  0  0  0  0  0  0  0  0  0  0
   18.1765  -21.9007    0.0000 C   0  0  0  0  0  0  0  0  0  0  0  0
   20.2222  -19.0917    0.0000 H   0  0  0  0  0  0  0  0  0  0  0  0
   16.1311  -19.0917    0.0000 H   0  0  0  0  0  0  0  0  0  0  0  0
   19.9119   -3.5848    0.0000 H   0  0  0  0  0  0  0  0  0  0  0  0
   15.8208   -3.5848    0.0000 H   0  0  0  0  0  0  0  0  0  0  0  0
   25.2082  -16.4901    0.0000 H   0  0  0  0  0  0  0  0  0  0  0  0
   27.0613  -16.4646    0.0000 H   0  0  0  0  0  0  0  0  0  0  0  0
   26.1421  -17.0123    0.0000 H   0  0  0  0  0  0  0  0  0  0  0  0
   26.9253   -6.5749    0.0000 H   0  0  0  0  0  0  0  0  0  0  0  0
   25.0722   -6.6004    0.0000 H   0  0  0  0  0  0  0  0  0  0  0  0
   25.9914   -6.0527    0.0000 H   0  0  0  0  0  0  0  0  0  0  0  0
   31.0244  -12.3910    0.0000 H   0  0  0  0  0  0  0  0  0  0  0  0
   30.9989  -10.5379    0.0000 H   0  0  0  0  0  0  0  0  0  0  0  0
   31.5466  -11.4571    0.0000 H   0  0  0  0  0  0  0  0  0  0  0  0
   10.3441   -6.6319    0.0000 H   0  0  0  0  0  0  0  0  0  0  0  0
    8.4910   -6.6586    0.0000 H   0  0  0  0  0  0  0  0  0  0  0  0
    9.4098   -6.1103    0.0000 H   0  0  0  0  0  0  0  0  0  0  0  0
    8.6331  -16.5482    0.0000 H   0  0  0  0  0  0  0  0  0  0  0  0
   10.4862  -16.5215    0.0000 H   0  0  0  0  0  0  0  0  0  0  0  0
    9.5674  -17.0698    0.0000 H   0  0  0  0  0  0  0  0  0  0  0  0
    4.5304  -10.7345    0.0000 H   0  0  0  0  0  0  0  0  0  0  0  0
    4.5571  -12.5876    0.0000 H   0  0  0  0  0  0  0  0  0  0  0  0
    4.0088  -11.6688    0.0000 H   0  0  0  0  0  0  0  0  0  0  0  0
   18.4349   -7.2476    0.0000 H   0  0  0  0  0  0  0  0  0  0  0  0
   20.0398   -8.1744    0.0000 H   0  0  0  0  0  0  0  0  0  0  0  0
   18.9698   -8.1743    0.0000 H   0  0  0  0  0  0  0  0  0  0  0  0
   21.9050   -4.9441    0.0000 H   0  0  0  0  0  0  0  0  0  0  0  0
   20.3000   -4.0175    0.0000 H   0  0  0  0  0  0  0  0  0  0  0  0
   21.3700   -4.0175    0.0000 H   0  0  0  0  0  0  0  0  0  0  0  0
   21.3218   -7.8309    0.0000 H   0  0  0  0  0  0  0  0  0  0  0  0
   22.2484   -6.2259    0.0000 H   0  0  0  0  0  0  0  0  0  0  0  0
   22.2484   -7.2959    0.0000 H   0  0  0  0  0  0  0  0  0  0  0  0
   19.7312   -3.0324    0.0000 H   0  0  0  0  0  0  0  0  0  0  0  0
   19.7312   -1.1792    0.0000 H   0  0  0  0  0  0  0  0  0  0  0  0
   20.2662   -2.1058    0.0000 H   0  0  0  0  0  0  0  0  0  0  0  0
   16.0011   -1.1793    0.0000 H   0  0  0  0  0  0  0  0  0  0  0  0
   16.0013   -3.0326    0.0000 H   0  0  0  0  0  0  0  0  0  0  0  0
   15.4662   -2.1060    0.0000 H   0  0  0  0  0  0  0  0  0  0  0  0
   18.7928   -0.2408    0.0000 H   0  0  0  0  0  0  0  0  0  0  0  0
   16.9396   -0.2408    0.0000 H   0  0  0  0  0  0  0  0  0  0  0  0
   17.8662    0.2942    0.0000 H   0  0  0  0  0  0  0  0  0  0  0  0
   15.4327   -4.0174    0.0000 H   0  0  0  0  0  0  0  0  0  0  0  0
   13.8277   -4.9440    0.0000 H   0  0  0  0  0  0  0  0  0  0  0  0
   14.3627   -4.0174    0.0000 H   0  0  0  0  0  0  0  0  0  0  0  0
   15.6925   -8.1742    0.0000 H   0  0  0  0  0  0  0  0  0  0  0  0
   17.2976   -7.2477    0.0000 H   0  0  0  0  0  0  0  0  0  0  0  0
   16.7625   -8.1743    0.0000 H   0  0  0  0  0  0  0  0  0  0  0  0
   13.4842   -6.2258    0.0000 H   0  0  0  0  0  0  0  0  0  0  0  0
   14.4108   -7.8308    0.0000 H   0  0  0  0  0  0  0  0  0  0  0  0
   13.4841   -7.2958    0.0000 H   0  0  0  0  0  0  0  0  0  0  0  0
   20.6103  -18.6591    0.0000 H   0  0  0  0  0  0  0  0  0  0  0  0
   22.2153  -17.7325    0.0000 H   0  0  0  0  0  0  0  0  0  0  0  0
   21.6803  -18.6591    0.0000 H   0  0  0  0  0  0  0  0  0  0  0  0
   20.3503  -14.5022    0.0000 H   0  0  0  0  0  0  0  0  0  0  0  0
   18.7453  -15.4288    0.0000 H   0  0  0  0  0  0  0  0  0  0  0  0
   19.2803  -14.5021    0.0000 H   0  0  0  0  0  0  0  0  0  0  0  0
   22.5588  -16.4505    0.0000 H   0  0  0  0  0  0  0  0  0  0  0  0
   21.6320  -14.8456    0.0000 H   0  0  0  0  0  0  0  0  0  0  0  0
   22.5587  -15.3805    0.0000 H   0  0  0  0  0  0  0  0  0  0  0  0
   17.6080  -15.4288    0.0000 H   0  0  0  0  0  0  0  0  0  0  0  0
   16.0030  -14.5022    0.0000 H   0  0  0  0  0  0  0  0  0  0  0  0
   17.0730  -14.5021    0.0000 H   0  0  0  0  0  0  0  0  0  0  0  0
   14.1380  -17.7325    0.0000 H   0  0  0  0  0  0  0  0  0  0  0  0
   15.7430  -18.6591    0.0000 H   0  0  0  0  0  0  0  0  0  0  0  0
   14.6730  -18.6591    0.0000 H   0  0  0  0  0  0  0  0  0  0  0  0
   14.7212  -14.8457    0.0000 H   0  0  0  0  0  0  0  0  0  0  0  0
   13.7946  -16.4507    0.0000 H   0  0  0  0  0  0  0  0  0  0  0  0
   13.7946  -15.3807    0.0000 H   0  0  0  0  0  0  0  0  0  0  0  0
   16.3117  -19.6439    0.0000 H   0  0  0  0  0  0  0  0  0  0  0  0
   16.3115  -21.4972    0.0000 H   0  0  0  0  0  0  0  0  0  0  0  0
   15.7766  -20.5705    0.0000 H   0  0  0  0  0  0  0  0  0  0  0  0
   20.0416  -21.4973    0.0000 H   0  0  0  0  0  0  0  0  0  0  0  0
   20.0416  -19.6441    0.0000 H   0  0  0  0  0  0  0  0  0  0  0  0
   20.5766  -20.5707    0.0000 H   0  0  0  0  0  0  0  0  0  0  0  0
   17.2498  -22.4356    0.0000 H   0  0  0  0  0  0  0  0  0  0  0  0
   19.1031  -22.4358    0.0000 H   0  0  0  0  0  0  0  0  0  0  0  0
   18.1764  -22.9707    0.0000 H   0  0  0  0  0  0  0  0  0  0  0  0
  1  2  1  0  0  0  0
  1  3  2  0  0  0  0
  1 37  1  0  0  0  0
  2  4  2  0  0  0  0
  2 49  1  0  0  0  0
  3  5  1  0  0  0  0
  3 16  1  0  0  0  0
  4  6  1  0  0  0  0
  4 45  1  0  0  0  0
  5  6  2  0  0  0  0
  5 41  1  0  0  0  0
  6 50  1  0  0  0  0
  7  8  1  0  0  0  0
  7  9  2  0  0  0  0
  7 51  1  0  0  0  0
  8 10  2  0  0  0  0
  8 25  1  0  0  0  0
  9 11  1  0  0  0  0
  9 29  1  0  0  0  0
 10 12  1  0  0  0  0
 10 14  1  0  0  0  0
 11 12  2  0  0  0  0
 11 52  1  0  0  0  0
 12 33  1  0  0  0  0
 13 14  1  0  0  0  0
 13 16  1  0  0  0  0
 13 21  1  0  0  0  0
 14 15  1  0  0  0  0
 15 17  1  0  0  0  0
 16 15  1  0  0  0  0
 17 18  1  0  0  0  0
 17 19  1  0  0  0  0
 17 20  1  0  0  0  0
 18 53  1  0  0  0  0
 18 54  1  0  0  0  0
 18 55  1  0  0  0  0
 19 56  1  0  0  0  0
 19 57  1  0  0  0  0
 19 58  1  0  0  0  0
 20 59  1  0  0  0  0
 20 60  1  0  0  0  0
 20 61  1  0  0  0  0
 21 22  1  0  0  0  0
 21 23  1  0  0  0  0
 21 24  1  0  0  0  0
 22 62  1  0  0  0  0
 22 63  1  0  0  0  0
 22 64  1  0  0  0  0
 23 65  1  0  0  0  0
 23 66  1  0  0  0  0
 23 67  1  0  0  0  0
 24 68  1  0  0  0  0
 24 69  1  0  0  0  0
 24 70  1  0  0  0  0
 25 26  1  0  0  0  0
 25 27  1  0  0  0  0
 25 28  1  0  0  0  0
 26 71  1  0  0  0  0
 26 72  1  0  0  0  0
 26 73  1  0  0  0  0
 27 74  1  0  0  0  0
 27 75  1  0  0  0  0
 27 76  1  0  0  0  0
 28 77  1  0  0  0  0
 28 78  1  0  0  0  0
 28 79  1  0  0  0  0
 29 30  1  0  0  0  0
 29 31  1  0  0  0  0
 29 32  1  0  0  0  0
 30 80  1  0  0  0  0
 30 81  1  0  0  0  0
 30 82  1  0  0  0  0
 31 83  1  0  0  0  0
 31 84  1  0  0  0  0
 31 85  1  0  0  0  0
 32 86  1  0  0  0  0
 32 87  1  0  0  0  0
 32 88  1  0  0  0  0
 33 34  1  0  0  0  0
 33 35  1  0  0  0  0
 33 36  1  0  0  0  0
 34 89  1  0  0  0  0
 34 90  1  0  0  0  0
 34 91  1  0  0  0  0
 35 92  1  0  0  0  0
 35 93  1  0  0  0  0
 35 94  1  0  0  0  0
 36 95  1  0  0  0  0
 36 96  1  0  0  0  0
 36 97  1  0  0  0  0
 37 38  1  0  0  0  0
 37 39  1  0  0  0  0
 37 40  1  0  0  0  0
 38 98  1  0  0  0  0
 38 99  1  0  0  0  0
 38100  1  0  0  0  0
 39101  1  0  0  0  0
 39102  1  0  0  0  0
 39103  1  0  0  0  0
 40104  1  0  0  0  0
 40105  1  0  0  0  0
 40106  1  0  0  0  0
 41 42  1  0  0  0  0
 41 43  1  0  0  0  0
 41 44  1  0  0  0  0
 42107  1  0  0  0  0
 42108  1  0  0  0  0
 42109  1  0  0  0  0
 43110  1  0  0  0  0
 43111  1  0  0  0  0
 43112  1  0  0  0  0
 44113  1  0  0  0  0
 44114  1  0  0  0  0
 44115  1  0  0  0  0
 45 46  1  0  0  0  0
 45 47  1  0  0  0  0
 45 48  1  0  0  0  0
 46116  1  0  0  0  0
 46117  1  0  0  0  0
 46118  1  0  0  0  0
 47119  1  0  0  0  0
 47120  1  0  0  0  0
 47121  1  0  0  0  0
 48122  1  0  0  0  0
 48123  1  0  0  0  0
 48124  1  0  0  0  0
M  END
> <NMREDATA_VERSION>
1.1

> <NMREDATA_LEVEL>
0

> <NMREDATA_FORMULA>
C44H76N2P2

> <NMREDATA_SMILES>
CC(N1P(N(P1c1c(cc(cc1C(C)(C)C)C(C)(C)C)C(C)(C)C)C(C)(C)C)c1c(cc(cc1C(C)(C)C)C(C)(C)C)C(C)(C)C)(C)C

> <NMREDATA_ASSIGNMENT>
P14, 250.70, 14
P16, 250.70, 16

> <NMREDATA_1D_31P>
250.70, L=P14
250.70, L=P16

$$$$
