
 OpenBabel08102311353D

 62 70  0  0  0  0  0  0  0  0999 V2000
   18.4258  -12.1543    0.0000 C   0  0  0  0  0  0  0  0  0  0  0  0
   18.4258  -13.4843    0.0000 C   0  0  0  0  0  0  0  0  0  0  0  0
   19.6907  -11.7433    0.0000 O   0  0  0  0  0  0  0  0  0  0  0  0
   20.4724  -12.8193    0.0000 P   0  0  0  0  0  0  0  0  0  0  0  0
   19.6908  -13.8953    0.0000 O   0  0  0  0  0  0  0  0  0  0  0  0
   20.8794  -11.0727    0.0000 O   0  0  0  0  0  0  0  0  0  0  0  0
   21.9370  -12.1142    0.0000 O   0  0  0  0  0  0  0  0  0  0  0  0
   22.1293  -10.2234    0.0000 C   0  0  0  0  0  0  0  0  0  0  0  0
   23.0427  -11.2649    0.0000 C   0  0  0  0  0  0  0  0  0  0  0  0
   21.5845  -13.6686    0.0000 O   0  0  0  0  0  0  0  0  0  0  0  0
   17.2741  -11.4894    0.0000 C   0  0  0  0  0  0  0  0  0  0  0  0
   16.1223  -12.1545    0.0000 C   0  0  0  0  0  0  0  0  0  0  0  0
   17.2741  -14.1493    0.0000 C   0  0  0  0  0  0  0  0  0  0  0  0
   16.1224  -13.4843    0.0000 C   0  0  0  0  0  0  0  0  0  0  0  0
   22.5746   -8.9117    0.0000 C   0  0  0  0  0  0  0  0  0  0  0  0
   23.9334   -8.6416    0.0000 C   0  0  0  0  0  0  0  0  0  0  0  0
   24.4013  -10.9948    0.0000 C   0  0  0  0  0  0  0  0  0  0  0  0
   24.8466   -9.6831    0.0000 C   0  0  0  0  0  0  0  0  0  0  0  0
   21.4139  -14.9875    0.0000 C   0  0  0  0  0  0  0  0  0  0  0  0
   22.4708  -15.7948    0.0000 C   0  0  0  0  0  0  0  0  0  0  0  0
   20.1863  -15.4993    0.0000 C   0  0  0  0  0  0  0  0  0  0  0  0
   22.3002  -17.1138    0.0000 C   0  0  0  0  0  0  0  0  0  0  0  0
   20.0157  -16.8183    0.0000 C   0  0  0  0  0  0  0  0  0  0  0  0
   21.0727  -17.6255    0.0000 C   0  0  0  0  0  0  0  0  0  0  0  0
   23.5394  -15.0787    0.0000 O   0  0  0  0  0  0  0  0  0  0  0  0
   24.8854  -15.3671    0.0000 P   0  0  0  0  0  0  0  0  0  0  0  0
   25.6866  -13.9249    0.0000 O   0  0  0  0  0  0  0  0  0  0  0  0
   26.6000  -15.6235    0.0000 O   0  0  0  0  0  0  0  0  0  0  0  0
   25.6386  -16.5689    0.0000 O   0  0  0  0  0  0  0  0  0  0  0  0
   24.1323  -16.8253    0.0000 O   0  0  0  0  0  0  0  0  0  0  0  0
   27.0164  -13.9030    0.0000 C   0  0  0  0  0  0  0  0  0  0  0  0
   27.6623  -12.7404    0.0000 C   0  0  0  0  0  0  0  0  0  0  0  0
   27.7004  -15.0437    0.0000 C   0  0  0  0  0  0  0  0  0  0  0  0
   28.9922  -12.7185    0.0000 C   0  0  0  0  0  0  0  0  0  0  0  0
   29.0301  -15.0218    0.0000 C   0  0  0  0  0  0  0  0  0  0  0  0
   29.6760  -13.8592    0.0000 C   0  0  0  0  0  0  0  0  0  0  0  0
   24.8505  -17.9447    0.0000 C   0  0  0  0  0  0  0  0  0  0  0  0
   26.1790  -17.8824    0.0000 C   0  0  0  0  0  0  0  0  0  0  0  0
   24.2402  -19.1264    0.0000 C   0  0  0  0  0  0  0  0  0  0  0  0
   26.8972  -19.0019    0.0000 C   0  0  0  0  0  0  0  0  0  0  0  0
   24.9583  -20.2458    0.0000 C   0  0  0  0  0  0  0  0  0  0  0  0
   26.2868  -20.1835    0.0000 C   0  0  0  0  0  0  0  0  0  0  0  0
   17.2741  -10.4574    0.0000 H   0  0  0  0  0  0  0  0  0  0  0  0
   15.2285  -11.6386    0.0000 H   0  0  0  0  0  0  0  0  0  0  0  0
   17.2741  -15.1813    0.0000 H   0  0  0  0  0  0  0  0  0  0  0  0
   15.2287  -14.0003    0.0000 H   0  0  0  0  0  0  0  0  0  0  0  0
   21.8942   -8.1357    0.0000 H   0  0  0  0  0  0  0  0  0  0  0  0
   24.2652   -7.6644    0.0000 H   0  0  0  0  0  0  0  0  0  0  0  0
   25.0817  -11.7707    0.0000 H   0  0  0  0  0  0  0  0  0  0  0  0
   25.8588   -9.4818    0.0000 H   0  0  0  0  0  0  0  0  0  0  0  0
   19.3661  -14.8729    0.0000 H   0  0  0  0  0  0  0  0  0  0  0  0
   23.1204  -17.7402    0.0000 H   0  0  0  0  0  0  0  0  0  0  0  0
   19.0632  -17.2154    0.0000 H   0  0  0  0  0  0  0  0  0  0  0  0
   20.9403  -18.6490    0.0000 H   0  0  0  0  0  0  0  0  0  0  0  0
   27.1316  -11.8553    0.0000 H   0  0  0  0  0  0  0  0  0  0  0  0
   29.4934  -11.8164    0.0000 H   0  0  0  0  0  0  0  0  0  0  0  0
   29.5608  -15.9069    0.0000 H   0  0  0  0  0  0  0  0  0  0  0  0
   30.7079  -13.8422    0.0000 H   0  0  0  0  0  0  0  0  0  0  0  0
   23.2093  -19.1747    0.0000 H   0  0  0  0  0  0  0  0  0  0  0  0
   27.9281  -18.9536    0.0000 H   0  0  0  0  0  0  0  0  0  0  0  0
   24.4847  -21.1627    0.0000 H   0  0  0  0  0  0  0  0  0  0  0  0
   26.8441  -21.0521    0.0000 H   0  0  0  0  0  0  0  0  0  0  0  0
  1  3  1  0  0  0  0
  1 11  1  0  0  0  0
  1  2  2  0  0  0  0
  2  5  1  0  0  0  0
  2 13  1  0  0  0  0
  3  4  1  0  0  0  0
  4  5  1  0  0  0  0
  4  6  1  0  0  0  0
  4  7  1  0  0  0  0
  4 10  1  0  0  0  0
  6  8  1  0  0  0  0
  8 15  1  0  0  0  0
  8  9  2  0  0  0  0
  9  7  1  0  0  0  0
  9 17  1  0  0  0  0
 10 19  1  0  0  0  0
 11 12  2  0  0  0  0
 11 43  1  0  0  0  0
 12 14  1  0  0  0  0
 12 44  1  0  0  0  0
 13 14  2  0  0  0  0
 13 45  1  0  0  0  0
 14 46  1  0  0  0  0
 15 16  2  0  0  0  0
 15 47  1  0  0  0  0
 16 18  1  0  0  0  0
 16 48  1  0  0  0  0
 17 18  2  0  0  0  0
 17 49  1  0  0  0  0
 18 50  1  0  0  0  0
 19 20  1  0  0  0  0
 19 21  2  0  0  0  0
 20 22  2  0  0  0  0
 20 25  1  0  0  0  0
 21 23  1  0  0  0  0
 21 51  1  0  0  0  0
 22 24  1  0  0  0  0
 22 52  1  0  0  0  0
 23 24  2  0  0  0  0
 23 53  1  0  0  0  0
 24 54  1  0  0  0  0
 25 26  1  0  0  0  0
 26 27  1  0  0  0  0
 26 28  1  0  0  0  0
 26 29  1  0  0  0  0
 26 30  1  0  0  0  0
 27 31  1  0  0  0  0
 28 33  1  0  0  0  0
 30 37  1  0  0  0  0
 31 32  1  0  0  0  0
 31 33  2  0  0  0  0
 32 34  2  0  0  0  0
 32 55  1  0  0  0  0
 33 35  1  0  0  0  0
 34 36  1  0  0  0  0
 34 56  1  0  0  0  0
 35 36  2  0  0  0  0
 35 57  1  0  0  0  0
 36 58  1  0  0  0  0
 37 38  1  0  0  0  0
 37 39  2  0  0  0  0
 38 40  2  0  0  0  0
 38 29  1  0  0  0  0
 39 41  1  0  0  0  0
 39 59  1  0  0  0  0
 40 42  1  0  0  0  0
 40 60  1  0  0  0  0
 41 42  2  0  0  0  0
 41 61  1  0  0  0  0
 42 62  1  0  0  0  0
M  END
> <NMREDATA_VERSION>
1.1

> <NMREDATA_LEVEL>
0

> <NMREDATA_FORMULA>
C30H20O10P2

> <NMREDATA_SMILES>
c1ccc(c(c1)OP12(Oc3c(O2)cccc3)Oc2c(O1)cccc2)OP12(Oc3c(O2)cccc3)Oc2c(O1)cccc2

> <NMREDATA_ASSIGNMENT>
P4, -30.50, 4
P26, -30.50, 26

> <NMREDATA_1D_31P>
-30.50, L=P4
-30.50, L=P26

$$$$
