
 OpenBabel08102311332D

 99106  0  0  0  0  0  0  0  0999 V2000
    7.5295   -7.3218    0.0000 P    0  0  0  0  0  0  0  0  0  0  0  0
    6.8138   -6.1070    0.0000 Se   0  0  0  0  0  0  0  0  0  0  0  0
    8.7443   -6.6060    0.0000 C    0  0  0  0  0  0  0  0  0  0  0  0
    6.3148   -8.0375    0.0000 C    0  0  0  0  0  0  0  0  0  0  0  0
    7.5389   -9.7452    0.0000 P    0  0  0  0  0  0  0  0  0  0  0  0
    6.8338  -10.9578    0.0000 Se   0  0  0  0  0  0  0  0  0  0  0  0
    8.7515  -10.4503    0.0000 C    0  0  0  0  0  0  0  0  0  0  0  0
    6.3263   -9.0401    0.0000 C    0  0  0  0  0  0  0  0  0  0  0  0
    8.2435   -8.5335    0.0000 C    0  0  0  0  0  0  0  0  0  0  0  0
    9.6431   -8.5335    0.0000 C    0  0  0  0  0  0  0  0  0  0  0  0
   11.0520   -8.5335    0.0000 C    0  0  0  0  0  0  0  0  0  0  0  0
   11.7566   -9.7452    0.0000 P    0  0  0  0  0  0  0  0  0  0  0  0
   12.4565  -10.9651    0.0000 Se   0  0  0  0  0  0  0  0  0  0  0  0
   10.5449  -10.4498    0.0000 C    0  0  0  0  0  0  0  0  0  0  0  0
   12.9683   -9.0406    0.0000 C    0  0  0  0  0  0  0  0  0  0  0  0
   11.7472   -7.3218    0.0000 P    0  0  0  0  0  0  0  0  0  0  0  0
   12.4489   -6.0988    0.0000 Se   0  0  0  0  0  0  0  0  0  0  0  0
   12.9702   -8.0234    0.0000 C    0  0  0  0  0  0  0  0  0  0  0  0
   10.5243   -6.6201    0.0000 C    0  0  0  0  0  0  0  0  0  0  0  0
    8.7318   -5.1961    0.0000 C    0  0  0  0  0  0  0  0  0  0  0  0
    9.9466   -4.4804    0.0000 C    0  0  0  0  0  0  0  0  0  0  0  0
   11.1738   -5.1745    0.0000 C    0  0  0  0  0  0  0  0  0  0  0  0
   11.1863   -6.5844    0.0000 C    0  0  0  0  0  0  0  0  0  0  0  0
    9.9715   -7.3002    0.0000 C    0  0  0  0  0  0  0  0  0  0  0  0
    6.3272   -9.4474    0.0000 C    0  0  0  0  0  0  0  0  0  0  0  0
    5.1124  -10.1631    0.0000 C    0  0  0  0  0  0  0  0  0  0  0  0
    3.8852   -9.4690    0.0000 C    0  0  0  0  0  0  0  0  0  0  0  0
    3.8728   -8.0591    0.0000 C    0  0  0  0  0  0  0  0  0  0  0  0
    5.0875   -7.3434    0.0000 C    0  0  0  0  0  0  0  0  0  0  0  0
    9.9684   -9.7527    0.0000 C    0  0  0  0  0  0  0  0  0  0  0  0
   11.1810  -10.4578    0.0000 C    0  0  0  0  0  0  0  0  0  0  0  0
   11.1766  -11.8604    0.0000 C    0  0  0  0  0  0  0  0  0  0  0  0
    9.9597  -12.5580    0.0000 C    0  0  0  0  0  0  0  0  0  0  0  0
    8.7471  -11.8529    0.0000 C    0  0  0  0  0  0  0  0  0  0  0  0
    5.1094   -9.7377    0.0000 C    0  0  0  0  0  0  0  0  0  0  0  0
    3.8968   -9.0326    0.0000 C    0  0  0  0  0  0  0  0  0  0  0  0
    3.9011   -7.6299    0.0000 C    0  0  0  0  0  0  0  0  0  0  0  0
    5.1180   -6.9324    0.0000 C    0  0  0  0  0  0  0  0  0  0  0  0
    6.3306   -7.6374    0.0000 C    0  0  0  0  0  0  0  0  0  0  0  0
   10.5492  -11.8525    0.0000 C    0  0  0  0  0  0  0  0  0  0  0  0
    9.3366  -12.5575    0.0000 C    0  0  0  0  0  0  0  0  0  0  0  0
    8.1197  -11.8600    0.0000 C    0  0  0  0  0  0  0  0  0  0  0  0
    8.1154  -10.4573    0.0000 C    0  0  0  0  0  0  0  0  0  0  0  0
    9.3280   -9.7522    0.0000 C    0  0  0  0  0  0  0  0  0  0  0  0
   12.9640   -7.6379    0.0000 C    0  0  0  0  0  0  0  0  0  0  0  0
   14.1765   -6.9328    0.0000 C    0  0  0  0  0  0  0  0  0  0  0  0
   15.3935   -7.6304    0.0000 C    0  0  0  0  0  0  0  0  0  0  0  0
   15.3978   -9.0331    0.0000 C    0  0  0  0  0  0  0  0  0  0  0  0
   14.1852   -9.7382    0.0000 C    0  0  0  0  0  0  0  0  0  0  0  0
   14.1893   -7.3152    0.0000 C    0  0  0  0  0  0  0  0  0  0  0  0
   15.4123   -8.0168    0.0000 C    0  0  0  0  0  0  0  0  0  0  0  0
   15.4161   -9.4268    0.0000 C    0  0  0  0  0  0  0  0  0  0  0  0
   14.1970  -10.1351    0.0000 C    0  0  0  0  0  0  0  0  0  0  0  0
   12.9740   -9.4334    0.0000 C    0  0  0  0  0  0  0  0  0  0  0  0
    9.3052   -7.3284    0.0000 C    0  0  0  0  0  0  0  0  0  0  0  0
    8.0822   -6.6267    0.0000 C    0  0  0  0  0  0  0  0  0  0  0  0
    8.0784   -5.2168    0.0000 C    0  0  0  0  0  0  0  0  0  0  0  0
    9.2975   -4.5085    0.0000 C    0  0  0  0  0  0  0  0  0  0  0  0
   10.5205   -5.2102    0.0000 C    0  0  0  0  0  0  0  0  0  0  0  0
    7.8335   -4.6880    0.0000 H    0  0  0  0  0  0  0  0  0  0  0  0
    9.9375   -3.4484    0.0000 H    0  0  0  0  0  0  0  0  0  0  0  0
   12.0629   -4.6506    0.0000 H    0  0  0  0  0  0  0  0  0  0  0  0
   12.0846   -7.0925    0.0000 H    0  0  0  0  0  0  0  0  0  0  0  0
    9.9806   -8.3322    0.0000 H    0  0  0  0  0  0  0  0  0  0  0  0
    7.2254   -9.9555    0.0000 H    0  0  0  0  0  0  0  0  0  0  0  0
    5.1215  -11.1951    0.0000 H    0  0  0  0  0  0  0  0  0  0  0  0
    2.9961   -9.9929    0.0000 H    0  0  0  0  0  0  0  0  0  0  0  0
    2.9745   -7.5510    0.0000 H    0  0  0  0  0  0  0  0  0  0  0  0
    5.0783   -6.3114    0.0000 H    0  0  0  0  0  0  0  0  0  0  0  0
    9.9716   -8.7207    0.0000 H    0  0  0  0  0  0  0  0  0  0  0  0
   12.0763   -9.9446    0.0000 H    0  0  0  0  0  0  0  0  0  0  0  0
   12.0687  -12.3792    0.0000 H    0  0  0  0  0  0  0  0  0  0  0  0
    9.9565  -13.5900    0.0000 H    0  0  0  0  0  0  0  0  0  0  0  0
    7.8518  -12.3661    0.0000 H    0  0  0  0  0  0  0  0  0  0  0  0
    5.1062  -10.7697    0.0000 H    0  0  0  0  0  0  0  0  0  0  0  0
    3.0015   -9.5458    0.0000 H    0  0  0  0  0  0  0  0  0  0  0  0
    3.0090   -7.1111    0.0000 H    0  0  0  0  0  0  0  0  0  0  0  0
    5.1212   -5.9004    0.0000 H    0  0  0  0  0  0  0  0  0  0  0  0
    7.2259   -7.1241    0.0000 H    0  0  0  0  0  0  0  0  0  0  0  0
   11.4445  -12.3658    0.0000 H    0  0  0  0  0  0  0  0  0  0  0  0
    9.3398  -13.5895    0.0000 H    0  0  0  0  0  0  0  0  0  0  0  0
    7.2276  -12.3788    0.0000 H    0  0  0  0  0  0  0  0  0  0  0  0
    7.2201   -9.9441    0.0000 H    0  0  0  0  0  0  0  0  0  0  0  0
    9.3248   -8.7202    0.0000 H    0  0  0  0  0  0  0  0  0  0  0  0
   12.0687   -7.1247    0.0000 H    0  0  0  0  0  0  0  0  0  0  0  0
   14.1733   -5.9008    0.0000 H    0  0  0  0  0  0  0  0  0  0  0  0
   16.2856   -7.1116    0.0000 H    0  0  0  0  0  0  0  0  0  0  0  0
   16.2931   -9.5463    0.0000 H    0  0  0  0  0  0  0  0  0  0  0  0
   14.1884  -10.7702    0.0000 H    0  0  0  0  0  0  0  0  0  0  0  0
   14.1865   -6.2832    0.0000 H    0  0  0  0  0  0  0  0  0  0  0  0
   16.3046   -7.4984    0.0000 H    0  0  0  0  0  0  0  0  0  0  0  0
   16.3112   -9.9404    0.0000 H    0  0  0  0  0  0  0  0  0  0  0  0
   14.1998  -11.1671    0.0000 H    0  0  0  0  0  0  0  0  0  0  0  0
   12.0817   -9.9518    0.0000 H    0  0  0  0  0  0  0  0  0  0  0  0
    9.3080   -8.3604    0.0000 H    0  0  0  0  0  0  0  0  0  0  0  0
    7.1899   -7.1451    0.0000 H    0  0  0  0  0  0  0  0  0  0  0  0
    7.1833   -4.7032    0.0000 H    0  0  0  0  0  0  0  0  0  0  0  0
    9.2947   -3.4765    0.0000 H    0  0  0  0  0  0  0  0  0  0  0  0
   11.4128   -4.6918    0.0000 H    0  0  0  0  0  0  0  0  0  0  0  0
  1  2  2  0  0  0  0
  1  3  1  0  0  0  0
  1  4  1  0  0  0  0
  1  9  1  0  0  0  0
  3 20  2  0  0  0  0
  3 24  1  0  0  0  0
  4 25  2  0  0  0  0
  4 29  1  0  0  0  0
  5  6  2  0  0  0  0
  5  7  1  0  0  0  0
  5  8  1  0  0  0  0
  5  9  1  0  0  0  0
  7 30  2  0  0  0  0
  7 34  1  0  0  0  0
  8 35  2  0  0  0  0
  8 39  1  0  0  0  0
  9 10  2  0  0  0  0
 10 11  2  0  0  0  0
 11 12  1  0  0  0  0
 11 16  1  0  0  0  0
 12 13  2  0  0  0  0
 12 14  1  0  0  0  0
 12 15  1  0  0  0  0
 14 40  2  0  0  0  0
 14 44  1  0  0  0  0
 15 45  2  0  0  0  0
 15 49  1  0  0  0  0
 16 17  2  0  0  0  0
 16 18  1  0  0  0  0
 16 19  1  0  0  0  0
 18 50  2  0  0  0  0
 18 54  1  0  0  0  0
 19 55  2  0  0  0  0
 19 59  1  0  0  0  0
 20 21  1  0  0  0  0
 20 60  1  0  0  0  0
 21 22  2  0  0  0  0
 21 61  1  0  0  0  0
 22 23  1  0  0  0  0
 22 62  1  0  0  0  0
 23 24  2  0  0  0  0
 23 63  1  0  0  0  0
 24 64  1  0  0  0  0
 25 26  1  0  0  0  0
 25 65  1  0  0  0  0
 26 27  2  0  0  0  0
 26 66  1  0  0  0  0
 27 28  1  0  0  0  0
 27 67  1  0  0  0  0
 28 29  2  0  0  0  0
 28 68  1  0  0  0  0
 29 69  1  0  0  0  0
 30 31  1  0  0  0  0
 30 70  1  0  0  0  0
 31 32  2  0  0  0  0
 31 71  1  0  0  0  0
 32 33  1  0  0  0  0
 32 72  1  0  0  0  0
 33 34  2  0  0  0  0
 33 73  1  0  0  0  0
 34 74  1  0  0  0  0
 35 36  1  0  0  0  0
 35 75  1  0  0  0  0
 36 37  2  0  0  0  0
 36 76  1  0  0  0  0
 37 38  1  0  0  0  0
 37 77  1  0  0  0  0
 38 39  2  0  0  0  0
 38 78  1  0  0  0  0
 39 79  1  0  0  0  0
 40 41  1  0  0  0  0
 40 80  1  0  0  0  0
 41 42  2  0  0  0  0
 41 81  1  0  0  0  0
 42 43  1  0  0  0  0
 42 82  1  0  0  0  0
 43 44  2  0  0  0  0
 43 83  1  0  0  0  0
 44 84  1  0  0  0  0
 45 46  1  0  0  0  0
 45 85  1  0  0  0  0
 46 47  2  0  0  0  0
 46 86  1  0  0  0  0
 47 48  1  0  0  0  0
 47 87  1  0  0  0  0
 48 49  2  0  0  0  0
 48 88  1  0  0  0  0
 49 89  1  0  0  0  0
 50 51  1  0  0  0  0
 50 90  1  0  0  0  0
 51 52  2  0  0  0  0
 51 91  1  0  0  0  0
 52 53  1  0  0  0  0
 52 92  1  0  0  0  0
 53 54  2  0  0  0  0
 53 93  1  0  0  0  0
 54 94  1  0  0  0  0
 55 56  1  0  0  0  0
 55 95  1  0  0  0  0
 56 57  2  0  0  0  0
 56 96  1  0  0  0  0
 57 58  1  0  0  0  0
 57 97  1  0  0  0  0
 58 59  2  0  0  0  0
 58 98  1  0  0  0  0
 59 99  1  0  0  0  0
M  END
> <NMREDATA_VERSION>
1.1

> <NMREDATA_LEVEL>
0

> <NMREDATA_FORMULA>
C51H40P4Se4

> <NMREDATA_SMILES>
[Se]=P(C(=C=C(P(=[Se])(c1ccccc1)c1ccccc1)P(=[Se])(c1ccccc1)c1ccccc1)P(=[Se])(c1ccccc1)c1ccccc1)(c1ccccc1)c1ccccc1

> <NMREDATA_ASSIGNMENT>
P1, 37.20, 1
P5, 37.20, 5
P12, 37.20, 12
P16, 37.20, 16

> <NMREDATA_1D_31P>
37.20, L=P1
37.20, L=P5
37.20, L=P12
37.20, L=P16

$$$$
