
 OpenBabel08102311352D

 74 80  0  0  0  0  0  0  0  0999 V2000
   27.0794   -9.2936    0.0000 Br   0  0  0  0  0  0  0  0  0  0  0  0
   26.2980  -10.6556    0.0000 Br   0  3  0  0  0  0  0  0  0  0  0  0
   27.0794  -12.0178    0.0000 Br   0  0  0  0  0  0  0  0  0  0  0  0
   20.3006  -10.8890    0.0000 C    0  0  0  0  0  0  0  0  0  0  0  0
   19.0557  -11.3413    0.0000 C    0  0  0  0  0  0  0  0  0  0  0  0
   21.3259  -11.7419    0.0000 C    0  0  0  0  0  0  0  0  0  0  0  0
   18.8283  -12.6508    0.0000 C    0  0  0  0  0  0  0  0  0  0  0  0
   21.0987  -13.0517    0.0000 C    0  0  0  0  0  0  0  0  0  0  0  0
   19.8538  -13.5041    0.0000 C    0  0  0  0  0  0  0  0  0  0  0  0
   20.2485   -9.5561    0.0000 O    0  0  0  0  0  0  0  0  0  0  0  0
   18.2332  -10.2894    0.0000 O    0  0  0  0  0  0  0  0  0  0  0  0
   18.9699   -9.1876    0.0000 P    0  5  0  0  0  0  0  0  0  0  0  0
   17.7038   -8.8221    0.0000 Br   0  0  0  0  0  0  0  0  0  0  0  0
   19.7147   -8.0810    0.0000 Br   0  0  0  0  0  0  0  0  0  0  0  0
   13.4187   -9.5646    0.0000 C    0  0  0  0  0  0  0  0  0  0  0  0
   14.7356   -9.3781    0.0000 C    0  0  0  0  0  0  0  0  0  0  0  0
   12.6005   -8.5202    0.0000 C    0  0  0  0  0  0  0  0  0  0  0  0
   15.2339   -8.1475    0.0000 N    0  3  0  0  0  0  0  0  0  0  0  0
   13.0947   -7.2819    0.0000 C    0  0  0  0  0  0  0  0  0  0  0  0
   14.4115   -7.0956    0.0000 C    0  0  0  0  0  0  0  0  0  0  0  0
   14.5817   -3.5743    0.0000 C    0  0  0  0  0  0  0  0  0  0  0  0
   14.0879   -4.8128    0.0000 C    0  0  0  0  0  0  0  0  0  0  0  0
   15.8906   -3.3926    0.0000 C    0  0  0  0  0  0  0  0  0  0  0  0
   14.9060   -5.8572    0.0000 C    0  0  0  0  0  0  0  0  0  0  0  0
   16.7133   -4.4447    0.0000 C    0  0  0  0  0  0  0  0  0  0  0  0
   16.2225   -5.6709    0.0000 N    0  3  0  0  0  0  0  0  0  0  0  0
   14.1153  -15.8564    0.0000 C    0  0  0  0  0  0  0  0  0  0  0  0
   12.8703  -16.3088    0.0000 C    0  0  0  0  0  0  0  0  0  0  0  0
   15.1406  -16.7094    0.0000 C    0  0  0  0  0  0  0  0  0  0  0  0
   12.6430  -17.6183    0.0000 C    0  0  0  0  0  0  0  0  0  0  0  0
   14.9134  -18.0192    0.0000 C    0  0  0  0  0  0  0  0  0  0  0  0
   13.6684  -18.4715    0.0000 C    0  0  0  0  0  0  0  0  0  0  0  0
   14.0632  -14.5236    0.0000 O    0  0  0  0  0  0  0  0  0  0  0  0
   12.0479  -15.2568    0.0000 O    0  0  0  0  0  0  0  0  0  0  0  0
   12.7846  -14.1551    0.0000 P    0  5  0  0  0  0  0  0  0  0  0  0
   11.5185  -13.7896    0.0000 Br   0  0  0  0  0  0  0  0  0  0  0  0
   13.5294  -13.0485    0.0000 Br   0  0  0  0  0  0  0  0  0  0  0  0
    7.2334  -14.5321    0.0000 C    0  0  0  0  0  0  0  0  0  0  0  0
    8.5503  -14.3456    0.0000 C    0  0  0  0  0  0  0  0  0  0  0  0
    6.4152  -13.4876    0.0000 C    0  0  0  0  0  0  0  0  0  0  0  0
    9.0486  -13.1150    0.0000 N    0  3  0  0  0  0  0  0  0  0  0  0
    6.9094  -12.2494    0.0000 C    0  0  0  0  0  0  0  0  0  0  0  0
    8.2262  -12.0630    0.0000 C    0  0  0  0  0  0  0  0  0  0  0  0
    8.3964   -8.5418    0.0000 C    0  0  0  0  0  0  0  0  0  0  0  0
    7.9026   -9.7803    0.0000 C    0  0  0  0  0  0  0  0  0  0  0  0
    9.7053   -8.3601    0.0000 C    0  0  0  0  0  0  0  0  0  0  0  0
    8.7207  -10.8247    0.0000 C    0  0  0  0  0  0  0  0  0  0  0  0
   10.5280   -9.4122    0.0000 C    0  0  0  0  0  0  0  0  0  0  0  0
   10.0372  -10.6384    0.0000 N    0  3  0  0  0  0  0  0  0  0  0  0
   26.4718  -15.7837    0.0000 Br   0  5  0  0  0  0  0  0  0  0  0  0
   22.2944  -11.3855    0.0000 H    0  0  0  0  0  0  0  0  0  0  0  0
   17.8597  -13.0070    0.0000 H    0  0  0  0  0  0  0  0  0  0  0  0
   21.8900  -13.7142    0.0000 H    0  0  0  0  0  0  0  0  0  0  0  0
   19.6764  -14.5207    0.0000 H    0  0  0  0  0  0  0  0  0  0  0  0
   13.0332  -10.5219    0.0000 H    0  0  0  0  0  0  0  0  0  0  0  0
   15.3711  -10.1912    0.0000 H    0  0  0  0  0  0  0  0  0  0  0  0
   11.5789   -8.6667    0.0000 H    0  0  0  0  0  0  0  0  0  0  0  0
   12.4572   -6.4703    0.0000 H    0  0  0  0  0  0  0  0  0  0  0  0
   13.9452   -2.7620    0.0000 H    0  0  0  0  0  0  0  0  0  0  0  0
   13.0664   -4.9594    0.0000 H    0  0  0  0  0  0  0  0  0  0  0  0
   16.2778   -2.4360    0.0000 H    0  0  0  0  0  0  0  0  0  0  0  0
   17.7350   -4.2992    0.0000 H    0  0  0  0  0  0  0  0  0  0  0  0
   16.1091  -16.3530    0.0000 H    0  0  0  0  0  0  0  0  0  0  0  0
   11.6744  -17.9746    0.0000 H    0  0  0  0  0  0  0  0  0  0  0  0
   15.7047  -18.6817    0.0000 H    0  0  0  0  0  0  0  0  0  0  0  0
   13.4910  -19.4881    0.0000 H    0  0  0  0  0  0  0  0  0  0  0  0
    6.8479  -15.4894    0.0000 H    0  0  0  0  0  0  0  0  0  0  0  0
    9.1858  -15.1587    0.0000 H    0  0  0  0  0  0  0  0  0  0  0  0
    5.3936  -13.6340    0.0000 H    0  0  0  0  0  0  0  0  0  0  0  0
    6.2719  -11.4378    0.0000 H    0  0  0  0  0  0  0  0  0  0  0  0
    7.7599   -7.7295    0.0000 H    0  0  0  0  0  0  0  0  0  0  0  0
    6.8811   -9.9269    0.0000 H    0  0  0  0  0  0  0  0  0  0  0  0
   10.0925   -7.4035    0.0000 H    0  0  0  0  0  0  0  0  0  0  0  0
   11.5497   -9.2667    0.0000 H    0  0  0  0  0  0  0  0  0  0  0  0
  1  2  1  0  0  0  0
  2  3  1  0  0  0  0
  4  5  1  0  0  0  0
  4  6  2  0  0  0  0
  4 10  1  0  0  0  0
  5  7  2  0  0  0  0
  5 11  1  0  0  0  0
  6  8  1  0  0  0  0
  6 51  1  0  0  0  0
  7  9  1  0  0  0  0
  7 52  1  0  0  0  0
  8  9  2  0  0  0  0
  8 53  1  0  0  0  0
  9 54  1  0  0  0  0
 10 12  1  0  0  0  0
 12 11  1  0  0  0  0
 12 13  1  0  0  0  0
 12 14  1  0  0  0  0
 12 26  1  0  0  0  0
 12 18  1  0  0  0  0
 15 16  1  0  0  0  0
 15 17  2  0  0  0  0
 15 55  1  0  0  0  0
 16 18  2  0  0  0  0
 16 56  1  0  0  0  0
 17 19  1  0  0  0  0
 17 57  1  0  0  0  0
 18 20  1  0  0  0  0
 19 20  2  0  0  0  0
 19 58  1  0  0  0  0
 20 24  1  0  0  0  0
 21 22  1  0  0  0  0
 21 23  2  0  0  0  0
 21 59  1  0  0  0  0
 22 24  2  0  0  0  0
 22 60  1  0  0  0  0
 23 25  1  0  0  0  0
 23 61  1  0  0  0  0
 24 26  1  0  0  0  0
 25 26  2  0  0  0  0
 25 62  1  0  0  0  0
 27 28  1  0  0  0  0
 27 29  2  0  0  0  0
 27 33  1  0  0  0  0
 28 30  2  0  0  0  0
 28 34  1  0  0  0  0
 29 31  1  0  0  0  0
 29 63  1  0  0  0  0
 30 32  1  0  0  0  0
 30 64  1  0  0  0  0
 31 32  2  0  0  0  0
 31 65  1  0  0  0  0
 32 66  1  0  0  0  0
 33 35  1  0  0  0  0
 35 34  1  0  0  0  0
 35 36  1  0  0  0  0
 35 37  1  0  0  0  0
 35 49  1  0  0  0  0
 35 41  1  0  0  0  0
 38 39  1  0  0  0  0
 38 40  2  0  0  0  0
 38 67  1  0  0  0  0
 39 41  2  0  0  0  0
 39 68  1  0  0  0  0
 40 42  1  0  0  0  0
 40 69  1  0  0  0  0
 41 43  1  0  0  0  0
 42 43  2  0  0  0  0
 42 70  1  0  0  0  0
 43 47  1  0  0  0  0
 44 45  1  0  0  0  0
 44 46  2  0  0  0  0
 44 71  1  0  0  0  0
 45 47  2  0  0  0  0
 45 72  1  0  0  0  0
 46 48  1  0  0  0  0
 46 73  1  0  0  0  0
 47 49  1  0  0  0  0
 48 49  2  0  0  0  0
 48 74  1  0  0  0  0
M  END
> <NMREDATA_VERSION>
1.1

> <NMREDATA_LEVEL>
0

> <NMREDATA_FORMULA>
C32H30Br8N4O4P2

> <NMREDATA_SMILES>
Br[P-]12(Br)(Oc3c(O1)cccc3)[n+]1ccccc1-c1[n+]2cccc1.Br[P-]12(Br)(Oc3c(O1)cccc3)[n+]1ccccc1-c1[n+]2cccc1.Br[Br+]Br.[Br-]

> <NMREDATA_ASSIGNMENT>
P12, -198.00, 12
P35, -198.00, 35

> <NMREDATA_1D_31P>
-198.00, L=P12
-198.00, L=P35

$$$$
