
 OpenBabel08102311312D

 64 63  0  0  0  0  0  0  0  0999 V2000
   15.1431  -14.2926    0.0000 C   0  0  0  0  0  0  0  0  0  0  0  0
   13.9954  -14.9647    0.0000 P   0  0  3  0  0  0  0  0  0  0  0  0
   13.9873  -16.2946    0.0000 C   0  0  0  0  0  0  0  0  0  0  0  0
   12.8405  -14.2978    0.0000 C   0  0  0  0  0  0  0  0  0  0  0  0
   12.8396  -16.9667    0.0000 C   0  0  0  0  0  0  0  0  0  0  0  0
   15.1424  -12.9781    0.0000 C   0  0  0  0  0  0  0  0  0  0  0  0
   16.2901  -12.3060    0.0000 P   0  0  3  0  0  0  0  0  0  0  0  0
   17.4451  -12.9728    0.0000 C   0  0  0  0  0  0  0  0  0  0  0  0
   12.8314  -18.2967    0.0000 C   0  0  0  0  0  0  0  0  0  0  0  0
   13.9864  -18.9635    0.0000 O   0  0  0  0  0  0  0  0  0  0  0  0
   11.6835  -18.9691    0.0000 O   0  0  0  0  0  0  0  0  0  0  0  0
   16.2983  -10.9760    0.0000 C   0  0  0  0  0  0  0  0  0  0  0  0
   17.4460  -10.3039    0.0000 C   0  0  0  0  0  0  0  0  0  0  0  0
   17.4542   -8.9740    0.0000 C   0  0  0  0  0  0  0  0  0  0  0  0
   16.2992   -8.3071    0.0000 O   0  0  0  0  0  0  0  0  0  0  0  0
   18.6021   -8.3016    0.0000 O   0  0  0  0  0  0  0  0  0  0  0  0
   15.1382  -18.2985    0.0000 C   0  0  0  0  0  0  0  0  0  0  0  0
   16.2900  -18.9635    0.0000 C   0  0  0  0  0  0  0  0  0  0  0  0
   11.6919  -20.2991    0.0000 C   0  0  0  0  0  0  0  0  0  0  0  0
   10.5443  -20.9713    0.0000 C   0  0  0  0  0  0  0  0  0  0  0  0
   16.2992   -6.9771    0.0000 C   0  0  0  0  0  0  0  0  0  0  0  0
   15.1474   -6.3121    0.0000 C   0  0  0  0  0  0  0  0  0  0  0  0
   19.7581   -8.9593    0.0000 C   0  0  0  0  0  0  0  0  0  0  0  0
   20.9057   -8.2870    0.0000 C   0  0  0  0  0  0  0  0  0  0  0  0
   16.0715  -14.8245    0.0000 H   0  0  0  0  0  0  0  0  0  0  0  0
   16.0687  -13.7558    0.0000 H   0  0  0  0  0  0  0  0  0  0  0  0
   14.9140  -16.8296    0.0000 H   0  0  0  0  0  0  0  0  0  0  0  0
   13.9906  -17.3646    0.0000 H   0  0  0  0  0  0  0  0  0  0  0  0
   12.8406  -13.2278    0.0000 H   0  0  0  0  0  0  0  0  0  0  0  0
   11.9138  -14.8327    0.0000 H   0  0  0  0  0  0  0  0  0  0  0  0
   11.9139  -13.7627    0.0000 H   0  0  0  0  0  0  0  0  0  0  0  0
   11.9130  -16.4317    0.0000 H   0  0  0  0  0  0  0  0  0  0  0  0
   11.9113  -17.4988    0.0000 H   0  0  0  0  0  0  0  0  0  0  0  0
   14.2140  -12.4462    0.0000 H   0  0  0  0  0  0  0  0  0  0  0  0
   14.2168  -13.5149    0.0000 H   0  0  0  0  0  0  0  0  0  0  0  0
   17.4451  -14.0428    0.0000 H   0  0  0  0  0  0  0  0  0  0  0  0
   18.3717  -12.4378    0.0000 H   0  0  0  0  0  0  0  0  0  0  0  0
   18.3718  -13.5078    0.0000 H   0  0  0  0  0  0  0  0  0  0  0  0
   12.8348  -19.3667    0.0000 H   0  0  0  0  0  0  0  0  0  0  0  0
   15.3717  -10.4410    0.0000 H   0  0  0  0  0  0  0  0  0  0  0  0
   15.3700  -11.5081    0.0000 H   0  0  0  0  0  0  0  0  0  0  0  0
   18.3726  -10.8389    0.0000 H   0  0  0  0  0  0  0  0  0  0  0  0
   18.3743   -9.7718    0.0000 H   0  0  0  0  0  0  0  0  0  0  0  0
   17.4509   -7.9040    0.0000 H   0  0  0  0  0  0  0  0  0  0  0  0
   15.1382  -17.2285    0.0000 H   0  0  0  0  0  0  0  0  0  0  0  0
   16.0648  -17.7635    0.0000 H   0  0  0  0  0  0  0  0  0  0  0  0
   16.2900  -20.0335    0.0000 H   0  0  0  0  0  0  0  0  0  0  0  0
   17.2166  -18.4285    0.0000 H   0  0  0  0  0  0  0  0  0  0  0  0
   17.2166  -19.4985    0.0000 H   0  0  0  0  0  0  0  0  0  0  0  0
   12.6219  -20.8283    0.0000 H   0  0  0  0  0  0  0  0  0  0  0  0
   11.6986  -21.3691    0.0000 H   0  0  0  0  0  0  0  0  0  0  0  0
    9.6143  -20.4421    0.0000 H   0  0  0  0  0  0  0  0  0  0  0  0
   10.5510  -22.0413    0.0000 H   0  0  0  0  0  0  0  0  0  0  0  0
    9.6210  -21.5121    0.0000 H   0  0  0  0  0  0  0  0  0  0  0  0
   17.2258   -6.4421    0.0000 H   0  0  0  0  0  0  0  0  0  0  0  0
   16.2992   -5.9071    0.0000 H   0  0  0  0  0  0  0  0  0  0  0  0
   15.1474   -5.2421    0.0000 H   0  0  0  0  0  0  0  0  0  0  0  0
   14.2208   -6.8471    0.0000 H   0  0  0  0  0  0  0  0  0  0  0  0
   14.2208   -5.7771    0.0000 H   0  0  0  0  0  0  0  0  0  0  0  0
   19.7649  -10.0293    0.0000 H   0  0  0  0  0  0  0  0  0  0  0  0
   20.6881   -9.4884    0.0000 H   0  0  0  0  0  0  0  0  0  0  0  0
   21.8357   -8.8161    0.0000 H   0  0  0  0  0  0  0  0  0  0  0  0
   20.8989   -7.2170    0.0000 H   0  0  0  0  0  0  0  0  0  0  0  0
   21.8289   -7.7461    0.0000 H   0  0  0  0  0  0  0  0  0  0  0  0
  1  2  1  0  0  0  0
  1  6  1  0  0  0  0
  1 25  1  0  0  0  0
  1 26  1  0  0  0  0
  2  3  1  0  0  0  0
  3  5  1  0  0  0  0
  3 27  1  0  0  0  0
  3 28  1  0  0  0  0
  4  2  1  0  0  0  0
  4 29  1  0  0  0  0
  4 30  1  0  0  0  0
  4 31  1  0  0  0  0
  5  9  1  0  0  0  0
  5 32  1  0  0  0  0
  5 33  1  0  0  0  0
  6  7  1  0  0  0  0
  6 34  1  0  0  0  0
  6 35  1  0  0  0  0
  7  8  1  0  0  0  0
  7 12  1  0  0  0  0
  8 36  1  0  0  0  0
  8 37  1  0  0  0  0
  8 38  1  0  0  0  0
  9 10  1  0  0  0  0
  9 11  1  0  0  0  0
  9 39  1  0  0  0  0
 10 17  1  0  0  0  0
 11 19  1  0  0  0  0
 12 13  1  0  0  0  0
 12 40  1  0  0  0  0
 12 41  1  0  0  0  0
 13 14  1  0  0  0  0
 13 42  1  0  0  0  0
 13 43  1  0  0  0  0
 14 15  1  0  0  0  0
 14 16  1  0  0  0  0
 14 44  1  0  0  0  0
 15 21  1  0  0  0  0
 16 23  1  0  0  0  0
 17 18  1  0  0  0  0
 17 45  1  0  0  0  0
 17 46  1  0  0  0  0
 18 47  1  0  0  0  0
 18 48  1  0  0  0  0
 18 49  1  0  0  0  0
 19 20  1  0  0  0  0
 19 50  1  0  0  0  0
 19 51  1  0  0  0  0
 20 52  1  0  0  0  0
 20 53  1  0  0  0  0
 20 54  1  0  0  0  0
 21 22  1  0  0  0  0
 21 55  1  0  0  0  0
 21 56  1  0  0  0  0
 22 57  1  0  0  0  0
 22 58  1  0  0  0  0
 22 59  1  0  0  0  0
 23 24  1  0  0  0  0
 23 60  1  0  0  0  0
 23 61  1  0  0  0  0
 24 62  1  0  0  0  0
 24 63  1  0  0  0  0
 24 64  1  0  0  0  0
M  END
> <NMREDATA_VERSION>
1.1

> <NMREDATA_LEVEL>
0

> <NMREDATA_FORMULA>
C18H40O4P2

> <NMREDATA_SMILES>
CCOC(OCC)CCP(CCP(CCC(OCC)OCC)C)C

> <NMREDATA_ASSIGNMENT>
P2, -38.20, 2
P7, -38.20, 7

> <NMREDATA_1D_31P>
-38.20, L=P2
-38.20, L=P7

$$$$
