
 OpenBabel08102311342D

 28 28  0  0  0  0  0  0  0  0999 V2000
   11.5694   -8.2204    0.0000 P   0  0  0  0  0  0  0  0  0  0  0  0
   13.7166   -8.0121    0.0000 N   0  0  0  0  0  0  0  0  0  0  0  0
   13.7166   -5.9610    0.0000 C   0  0  0  0  0  0  0  0  0  0  0  0
    9.3100   -8.6690    0.0000 F   0  0  0  0  0  0  0  0  0  0  0  0
   10.8643  -10.0151    0.0000 F   0  0  0  0  0  0  0  0  0  0  0  0
   10.3676   -6.8102    0.0000 N   0  0  0  0  0  0  0  0  0  0  0  0
    8.5088   -7.4192    0.0000 C   0  0  0  0  0  0  0  0  0  0  0  0
   11.9219  -10.6721    0.0000 N   0  0  0  0  0  0  0  0  0  0  0  0
   10.1593  -11.8258    0.0000 C   0  0  0  0  0  0  0  0  0  0  0  0
   14.1653  -10.4637    0.0000 P   0  0  0  0  0  0  0  0  0  0  0  0
   15.9280   -8.8613    0.0000 F   0  0  0  0  0  0  0  0  0  0  0  0
   16.0722  -10.8643    0.0000 F   0  0  0  0  0  0  0  0  0  0  0  0
   14.5659  -12.0661    0.0000 N   0  0  0  0  0  0  0  0  0  0  0  0
   12.9635  -12.7712    0.0000 C   0  0  0  0  0  0  0  0  0  0  0  0
   14.6432   -5.4260    0.0000 H   0  0  0  0  0  0  0  0  0  0  0  0
   12.7900   -5.4260    0.0000 H   0  0  0  0  0  0  0  0  0  0  0  0
   13.7166   -4.8910    0.0000 H   0  0  0  0  0  0  0  0  0  0  0  0
   10.6438   -5.8283    0.0000 H   0  0  0  0  0  0  0  0  0  0  0  0
    7.7119   -6.7052    0.0000 H   0  0  0  0  0  0  0  0  0  0  0  0
    8.2889   -8.4664    0.0000 H   0  0  0  0  0  0  0  0  0  0  0  0
    7.4920   -7.7523    0.0000 H   0  0  0  0  0  0  0  0  0  0  0  0
    9.2042  -11.3435    0.0000 H   0  0  0  0  0  0  0  0  0  0  0  0
   10.2192  -12.8941    0.0000 H   0  0  0  0  0  0  0  0  0  0  0  0
    9.2640  -12.4118    0.0000 H   0  0  0  0  0  0  0  0  0  0  0  0
   15.4818  -12.5149    0.0000 H   0  0  0  0  0  0  0  0  0  0  0  0
   12.1006  -12.1385    0.0000 H   0  0  0  0  0  0  0  0  0  0  0  0
   12.8470  -13.8348    0.0000 H   0  0  0  0  0  0  0  0  0  0  0  0
   11.9841  -13.2022    0.0000 H   0  0  0  0  0  0  0  0  0  0  0  0
  1  2  1  0  0  0  0
  1  4  1  0  0  0  0
  1  5  1  0  0  0  0
  1  6  1  0  0  0  0
  1  8  1  0  0  0  0
  2  3  1  0  0  0  0
  3 15  1  0  0  0  0
  3 16  1  0  0  0  0
  3 17  1  0  0  0  0
  6  7  1  0  0  0  0
  6 18  1  0  0  0  0
  7 19  1  0  0  0  0
  7 20  1  0  0  0  0
  7 21  1  0  0  0  0
  8  9  1  0  0  0  0
  8 10  1  0  0  0  0
  9 22  1  0  0  0  0
  9 23  1  0  0  0  0
  9 24  1  0  0  0  0
 10  2  1  0  0  0  0
 10 11  1  0  0  0  0
 10 12  1  0  0  0  0
 10 13  1  0  0  0  0
 13 14  1  0  0  0  0
 13 25  1  0  0  0  0
 14 26  1  0  0  0  0
 14 27  1  0  0  0  0
 14 28  1  0  0  0  0
M  END
> <NMREDATA_VERSION>
1.1

> <NMREDATA_LEVEL>
0

> <NMREDATA_FORMULA>
C4H14F4N4P2

> <NMREDATA_SMILES>
CNP1(F)(F)N(C)P(N1C)(F)(F)NC

> <NMREDATA_ASSIGNMENT>
P1, -68.10, 1
P10, -68.10, 10

> <NMREDATA_1D_31P>
-68.10, L=P1
-68.10, L=P10

$$$$
