
 OpenBabel08102311322D

 38 37  0  0  0  0  0  0  0  0999 V2000
   14.6456   -6.6318    0.0000 C   0  0  0  0  0  0  0  0  0  0  0  0
   15.9960   -6.6596    0.0000 C   0  0  0  0  0  0  0  0  0  0  0  0
   17.3279   -6.0491    0.0000 O   0  0  0  0  0  0  0  0  0  0  0  0
   14.6733   -3.7089    0.0000 C   0  0  0  0  0  0  0  0  0  0  0  0
   15.9682   -3.8199    0.0000 C   0  0  0  0  0  0  0  0  0  0  0  0
   17.4759   -4.1436    0.0000 O   0  0  0  0  0  0  0  0  0  0  0  0
   18.8079   -4.9206    0.0000 P   0  0  0  0  0  0  0  0  0  0  0  0
   20.1953   -4.7449    0.0000 N   0  0  0  0  0  0  0  0  0  0  0  0
   21.5181   -4.6061    0.0000 P   0  0  0  0  0  0  0  0  0  0  0  0
   21.5181   -3.4221    0.0000 O   0  0  0  0  0  0  0  0  0  0  0  0
   22.7113   -4.1714    0.0000 O   0  0  0  0  0  0  0  0  0  0  0  0
   22.1008   -5.7346    0.0000 O   0  0  0  0  0  0  0  0  0  0  0  0
   23.3125   -6.5393    0.0000 C   0  0  0  0  0  0  0  0  0  0  0  0
   24.4965   -3.6257    0.0000 C   0  0  0  0  0  0  0  0  0  0  0  0
   25.1347   -3.6534    0.0000 C   0  0  0  0  0  0  0  0  0  0  0  0
   24.4687   -6.4838    0.0000 C   0  0  0  0  0  0  0  0  0  0  0  0
   17.9790   -9.7106    0.0000 O   0  0  0  0  0  0  0  0  0  0  0  0
   14.1298   -5.6943    0.0000 H   0  0  0  0  0  0  0  0  0  0  0  0
   14.0916   -7.5472    0.0000 H   0  0  0  0  0  0  0  0  0  0  0  0
   13.5758   -6.6098    0.0000 H   0  0  0  0  0  0  0  0  0  0  0  0
   16.2134   -7.7073    0.0000 H   0  0  0  0  0  0  0  0  0  0  0  0
   16.9508   -7.1425    0.0000 H   0  0  0  0  0  0  0  0  0  0  0  0
   14.2194   -2.7399    0.0000 H   0  0  0  0  0  0  0  0  0  0  0  0
   14.0611   -4.5865    0.0000 H   0  0  0  0  0  0  0  0  0  0  0  0
   13.6072   -3.6175    0.0000 H   0  0  0  0  0  0  0  0  0  0  0  0
   16.1265   -2.7617    0.0000 H   0  0  0  0  0  0  0  0  0  0  0  0
   16.8480   -3.2110    0.0000 H   0  0  0  0  0  0  0  0  0  0  0  0
   20.0780   -3.7317    0.0000 H   0  0  0  0  0  0  0  0  0  0  0  0
   23.0280   -7.5708    0.0000 H   0  0  0  0  0  0  0  0  0  0  0  0
   23.9810   -7.3748    0.0000 H   0  0  0  0  0  0  0  0  0  0  0  0
   24.3614   -2.5643    0.0000 H   0  0  0  0  0  0  0  0  0  0  0  0
   25.2210   -2.8383    0.0000 H   0  0  0  0  0  0  0  0  0  0  0  0
   25.6290   -4.6024    0.0000 H   0  0  0  0  0  0  0  0  0  0  0  0
   25.7094   -2.7508    0.0000 H   0  0  0  0  0  0  0  0  0  0  0  0
   26.2037   -3.6998    0.0000 H   0  0  0  0  0  0  0  0  0  0  0  0
   25.0475   -7.3837    0.0000 H   0  0  0  0  0  0  0  0  0  0  0  0
   24.9587   -5.5326    0.0000 H   0  0  0  0  0  0  0  0  0  0  0  0
   25.5375   -6.4325    0.0000 H   0  0  0  0  0  0  0  0  0  0  0  0
  1  2  1  0  0  0  0
  1 18  1  0  0  0  0
  1 19  1  0  0  0  0
  1 20  1  0  0  0  0
  2  3  1  0  0  0  0
  2 21  1  0  0  0  0
  2 22  1  0  0  0  0
  3  7  1  0  0  0  0
  4  5  1  0  0  0  0
  4 23  1  0  0  0  0
  4 24  1  0  0  0  0
  4 25  1  0  0  0  0
  5  6  1  0  0  0  0
  5 26  1  0  0  0  0
  5 27  1  0  0  0  0
  6  7  1  0  0  0  0
  7  8  1  0  0  0  0
  7 17  2  0  0  0  0
  8  9  1  0  0  0  0
  8 28  1  0  0  0  0
  9 10  2  0  0  0  0
  9 11  1  0  0  0  0
  9 12  1  0  0  0  0
 11 14  1  0  0  0  0
 12 13  1  0  0  0  0
 13 16  1  0  0  0  0
 13 29  1  0  0  0  0
 13 30  1  0  0  0  0
 14 15  1  0  0  0  0
 14 31  1  0  0  0  0
 14 32  1  0  0  0  0
 15 33  1  0  0  0  0
 15 34  1  0  0  0  0
 15 35  1  0  0  0  0
 16 36  1  0  0  0  0
 16 37  1  0  0  0  0
 16 38  1  0  0  0  0
M  END
> <NMREDATA_VERSION>
1.1

> <NMREDATA_LEVEL>
0

> <NMREDATA_FORMULA>
C8H21NO6P2

> <NMREDATA_SMILES>
CCOP(=O)(NP(=O)(OCC)OCC)OCC

> <NMREDATA_ASSIGNMENT>
P7, -6.10, 7
P9, -6.10, 9

> <NMREDATA_1D_31P>
-6.10, L=P7
-6.10, L=P9

$$$$
