
 OpenBabel08102311322D

 37 36  0  0  0  0  0  0  0  0999 V2000
   11.3130   -6.7622    0.0000 O   0  0  0  0  0  0  0  0  0  0  0  0
   15.8799   -9.1177    0.0000 P   0  0  3  0  0  0  0  0  0  0  0  0
    9.3100  -10.5118    0.0000 P   0  0  3  0  0  0  0  0  0  0  0  0
    7.8198   -6.1533    0.0000 S   0  0  0  0  0  0  0  0  0  0  0  0
   16.9215   -5.0636    0.0000 S   0  0  0  0  0  0  0  0  0  0  0  0
    7.9640  -13.2199    0.0000 S   0  0  0  0  0  0  0  0  0  0  0  0
   19.4372  -10.8163    0.0000 S   0  0  0  0  0  0  0  0  0  0  0  0
   11.2169  -11.7136    0.0000 O   0  0  0  0  0  0  0  0  0  0  0  0
   15.2229  -10.8643    0.0000 O   0  0  0  0  0  0  0  0  0  0  0  0
    6.8583  -14.5178    0.0000 C   0  0  0  0  0  0  0  0  0  0  0  0
    6.8102  -15.8318    0.0000 C   0  0  0  0  0  0  0  0  0  0  0  0
   12.8674  -13.1718    0.0000 C   0  0  0  0  0  0  0  0  0  0  0  0
   11.7617  -15.2229    0.0000 C   0  0  0  0  0  0  0  0  0  0  0  0
   15.3671  -12.8674    0.0000 C   0  0  0  0  0  0  0  0  0  0  0  0
   16.5689  -14.4698    0.0000 C   0  0  0  0  0  0  0  0  0  0  0  0
   21.6806  -10.7682    0.0000 C   0  0  0  0  0  0  0  0  0  0  0  0
   22.3376  -12.6751    0.0000 C   0  0  0  0  0  0  0  0  0  0  0  0
    5.8611  -14.1298    0.0000 H   0  0  0  0  0  0  0  0  0  0  0  0
    5.9642  -15.1056    0.0000 H   0  0  0  0  0  0  0  0  0  0  0  0
    5.8646  -16.3325    0.0000 H   0  0  0  0  0  0  0  0  0  0  0  0
    7.7167  -16.4003    0.0000 H   0  0  0  0  0  0  0  0  0  0  0  0
    6.7711  -16.9011    0.0000 H   0  0  0  0  0  0  0  0  0  0  0  0
   13.9208  -12.9841    0.0000 H   0  0  0  0  0  0  0  0  0  0  0  0
   13.4947  -14.0387    0.0000 H   0  0  0  0  0  0  0  0  0  0  0  0
   10.6922  -15.2541    0.0000 H   0  0  0  0  0  0  0  0  0  0  0  0
   12.3235  -16.1335    0.0000 H   0  0  0  0  0  0  0  0  0  0  0  0
   11.2540  -16.1648    0.0000 H   0  0  0  0  0  0  0  0  0  0  0  0
   14.3648  -13.2420    0.0000 H   0  0  0  0  0  0  0  0  0  0  0  0
   15.0665  -13.8943    0.0000 H   0  0  0  0  0  0  0  0  0  0  0  0
   16.1486  -15.4538    0.0000 H   0  0  0  0  0  0  0  0  0  0  0  0
   17.6312  -14.3418    0.0000 H   0  0  0  0  0  0  0  0  0  0  0  0
   17.2109  -15.3258    0.0000 H   0  0  0  0  0  0  0  0  0  0  0  0
   22.2925   -9.8904    0.0000 H   0  0  0  0  0  0  0  0  0  0  0  0
   22.7404  -10.9159    0.0000 H   0  0  0  0  0  0  0  0  0  0  0  0
   21.6358  -13.4828    0.0000 H   0  0  0  0  0  0  0  0  0  0  0  0
   23.3880  -12.8791    0.0000 H   0  0  0  0  0  0  0  0  0  0  0  0
   22.6861  -13.6867    0.0000 H   0  0  0  0  0  0  0  0  0  0  0  0
  1  2  1  0  0  0  0
  1  3  1  0  0  0  0
  2  5  2  0  0  0  0
  2  7  1  0  0  0  0
  2  9  1  0  0  0  0
  3  4  2  0  0  0  0
  3  6  1  0  0  0  0
  3  8  1  0  0  0  0
  6 10  1  0  0  0  0
  7 16  1  0  0  0  0
  8 12  1  0  0  0  0
  9 14  1  0  0  0  0
 10 11  1  0  0  0  0
 10 18  1  0  0  0  0
 10 19  1  0  0  0  0
 11 20  1  0  0  0  0
 11 21  1  0  0  0  0
 11 22  1  0  0  0  0
 12 13  1  0  0  0  0
 12 23  1  0  0  0  0
 12 24  1  0  0  0  0
 13 25  1  0  0  0  0
 13 26  1  0  0  0  0
 13 27  1  0  0  0  0
 14 15  1  0  0  0  0
 14 28  1  0  0  0  0
 14 29  1  0  0  0  0
 15 30  1  0  0  0  0
 15 31  1  0  0  0  0
 15 32  1  0  0  0  0
 16 17  1  0  0  0  0
 16 33  1  0  0  0  0
 16 34  1  0  0  0  0
 17 35  1  0  0  0  0
 17 36  1  0  0  0  0
 17 37  1  0  0  0  0
M  END
> <NMREDATA_VERSION>
1.1

> <NMREDATA_LEVEL>
0

> <NMREDATA_FORMULA>
C8H20O3P2S4

> <NMREDATA_SMILES>
CCOP(=S)(OP(=S)(SCC)OCC)SCC

> <NMREDATA_ASSIGNMENT>
P2, 94.50, 2
P3, 94.50, 3

> <NMREDATA_1D_31P>
94.50, L=P2
94.50, L=P3

$$$$
