
 OpenBabel08102311322D

 18 17  0  0  0  0  0  0  0  0999 V2000
    9.8981  -12.2521    0.0000 P    0  0  0  0  0  0  0  0  0  0  0  0
   10.2151  -14.0539    0.0000 Cl   0  0  0  0  0  0  0  0  0  0  0  0
    9.5853  -10.4335    0.0000 Cl   0  0  0  0  0  0  0  0  0  0  0  0
    8.0961  -12.5695    0.0000 O    0  0  0  0  0  0  0  0  0  0  0  0
   11.7057  -11.9457    0.0000 C    0  0  0  0  0  0  0  0  0  0  0  0
   11.7053  -10.1028    0.0000 O    0  0  0  0  0  0  0  0  0  0  0  0
   11.7146  -15.9389    0.0000 P    0  0  0  0  0  0  0  0  0  0  0  0
   13.5576  -15.9381    0.0000 Cl   0  0  0  0  0  0  0  0  0  0  0  0
    9.8718  -15.9395    0.0000 Cl   0  0  0  0  0  0  0  0  0  0  0  0
   11.7152  -17.7816    0.0000 O    0  0  0  0  0  0  0  0  0  0  0  0
   10.1095   -9.1810    0.0000 C    0  0  0  0  0  0  0  0  0  0  0  0
   13.5488  -11.9451    0.0000 P    0  0  0  0  0  0  0  0  0  0  0  0
   13.5431  -13.7773    0.0000 Cl   0  0  0  0  0  0  0  0  0  0  0  0
   13.5481  -10.1021    0.0000 Cl   0  0  0  0  0  0  0  0  0  0  0  0
   15.3854  -11.9338    0.0000 O    0  0  0  0  0  0  0  0  0  0  0  0
   10.1097   -8.1110    0.0000 H    0  0  0  0  0  0  0  0  0  0  0  0
    9.1827   -9.7158    0.0000 H    0  0  0  0  0  0  0  0  0  0  0  0
    9.1830   -8.6458    0.0000 H    0  0  0  0  0  0  0  0  0  0  0  0
  1  2  1  0  0  0  0
  1  3  1  0  0  0  0
  1  4  2  0  0  0  0
  1  5  1  0  0  0  0
  5  6  1  0  0  0  0
  5  7  1  0  0  0  0
  5 12  1  0  0  0  0
  6 11  1  0  0  0  0
  7  8  1  0  0  0  0
  7  9  1  0  0  0  0
  7 10  2  0  0  0  0
 11 16  1  0  0  0  0
 11 17  1  0  0  0  0
 11 18  1  0  0  0  0
 12 13  1  0  0  0  0
 12 14  1  0  0  0  0
 12 15  2  0  0  0  0
M  END
> <NMREDATA_VERSION>
1.1

> <NMREDATA_LEVEL>
0

> <NMREDATA_FORMULA>
C2H3Cl6O4P3

> <NMREDATA_SMILES>
COC(P(=O)(Cl)Cl)(P(=O)(Cl)Cl)P(=O)(Cl)Cl

> <NMREDATA_ASSIGNMENT>
P1, 33.50, 1
P7, 33.50, 7
P12, 33.50, 12

> <NMREDATA_1D_31P>
33.50, L=P1
33.50, L=P7
33.50, L=P12

$$$$
