hbp-Kap09_00177.mol
 OpenBabel08102311322D

 52 52  0  0  0  0  0  0  0  0999 V2000
    0.0000    0.9355    0.0000 P   0  0  0  0  0  0  0  0  0  0  0  0
   -0.8250    0.9355    0.0000 O   0  0  0  0  0  0  0  0  0  0  0  0
    0.0000    1.7605    0.0000 O   0  0  0  0  0  0  0  0  0  0  0  0
    0.8250    0.9355    0.0000 N   0  0  0  0  0  0  0  0  0  0  0  0
    0.0000    0.1105    0.0000 O   0  0  0  0  0  0  0  0  0  0  0  0
   -1.2375    0.2211    0.0000 C   0  0  0  0  0  0  0  0  0  0  0  0
   -2.0625    0.2211    0.0000 C   0  0  0  0  0  0  0  0  0  0  0  0
   -2.4750   -0.4934    0.0000 C   0  0  0  0  0  0  0  0  0  0  0  0
   -3.3000   -0.4934    0.0000 C   0  0  0  0  0  0  0  0  0  0  0  0
   -0.7145   -0.3020    0.0000 C   0  0  0  0  0  0  0  0  0  0  0  0
   -0.7145   -1.1270    0.0000 C   0  0  0  0  0  0  0  0  0  0  0  0
    0.0000   -1.5395    0.0000 C   0  0  0  0  0  0  0  0  0  0  0  0
    0.0000   -2.3645    0.0000 C   0  0  0  0  0  0  0  0  0  0  0  0
    1.2375    0.2211    0.0000 C   0  0  0  0  0  0  0  0  0  0  0  0
    2.0625    0.2211    0.0000 C   0  0  0  0  0  0  0  0  0  0  0  0
    0.8250   -0.4935    0.0000 C   0  0  0  0  0  0  0  0  0  0  0  0
    2.4749   -0.4935    0.0000 C   0  0  0  0  0  0  0  0  0  0  0  0
    1.2375   -1.2079    0.0000 C   0  0  0  0  0  0  0  0  0  0  0  0
    2.0624   -1.2079    0.0000 C   0  0  0  0  0  0  0  0  0  0  0  0
    1.2375    1.6500    0.0000 C   0  0  0  0  0  0  0  0  0  0  0  0
    2.0625    1.6500    0.0000 O   0  0  0  0  0  0  0  0  0  0  0  0
    2.4750    0.9355    0.0000 C   0  0  0  0  0  0  0  0  0  0  0  0
    3.3000    0.9355    0.0000 C   0  0  0  0  0  0  0  0  0  0  0  0
    0.8250    2.3645    0.0000 O   0  0  0  0  0  0  0  0  0  0  0  0
   -0.7025   -0.7056    0.0000 H   0  0  0  0  0  0  0  0  0  0  0  0
   -1.7725   -0.7055    0.0000 H   0  0  0  0  0  0  0  0  0  0  0  0
   -2.5975    1.1477    0.0000 H   0  0  0  0  0  0  0  0  0  0  0  0
   -3.1325    0.2211    0.0000 H   0  0  0  0  0  0  0  0  0  0  0  0
   -1.9400   -1.4200    0.0000 H   0  0  0  0  0  0  0  0  0  0  0  0
   -3.0100   -1.4200    0.0000 H   0  0  0  0  0  0  0  0  0  0  0  0
   -3.8350    0.4332    0.0000 H   0  0  0  0  0  0  0  0  0  0  0  0
   -3.8350   -1.4200    0.0000 H   0  0  0  0  0  0  0  0  0  0  0  0
   -4.3700   -0.4934    0.0000 H   0  0  0  0  0  0  0  0  0  0  0  0
   -1.6411    0.2330    0.0000 H   0  0  0  0  0  0  0  0  0  0  0  0
   -1.6411   -0.8370    0.0000 H   0  0  0  0  0  0  0  0  0  0  0  0
   -1.6411   -1.6620    0.0000 H   0  0  0  0  0  0  0  0  0  0  0  0
   -0.7145   -2.1970    0.0000 H   0  0  0  0  0  0  0  0  0  0  0  0
    0.9266   -1.0045    0.0000 H   0  0  0  0  0  0  0  0  0  0  0  0
    0.9266   -2.0745    0.0000 H   0  0  0  0  0  0  0  0  0  0  0  0
   -0.9266   -2.8995    0.0000 H   0  0  0  0  0  0  0  0  0  0  0  0
    0.9266   -2.8995    0.0000 H   0  0  0  0  0  0  0  0  0  0  0  0
    0.0000   -3.4345    0.0000 H   0  0  0  0  0  0  0  0  0  0  0  0
    2.5786    1.1148    0.0000 H   0  0  0  0  0  0  0  0  0  0  0  0
   -0.2070   -0.4936    0.0000 H   0  0  0  0  0  0  0  0  0  0  0  0
    3.5069   -0.4936    0.0000 H   0  0  0  0  0  0  0  0  0  0  0  0
    0.7215   -2.1016    0.0000 H   0  0  0  0  0  0  0  0  0  0  0  0
    2.5784   -2.1016    0.0000 H   0  0  0  0  0  0  0  0  0  0  0  0
    1.9400    0.0089    0.0000 H   0  0  0  0  0  0  0  0  0  0  0  0
    3.0100    0.0089    0.0000 H   0  0  0  0  0  0  0  0  0  0  0  0
    3.8350    0.0089    0.0000 H   0  0  0  0  0  0  0  0  0  0  0  0
    3.8350    1.8621    0.0000 H   0  0  0  0  0  0  0  0  0  0  0  0
    4.3700    0.9355    0.0000 H   0  0  0  0  0  0  0  0  0  0  0  0
  1  2  1  0  0  0  0
  1  3  2  0  0  0  0
  1  4  1  0  0  0  0
  1  5  1  0  0  0  0
  2  6  1  0  0  0  0
  4 14  1  0  0  0  0
  4 20  1  0  0  0  0
  5 10  1  0  0  0  0
  6  7  1  0  0  0  0
  6 25  1  0  0  0  0
  6 26  1  0  0  0  0
  7  8  1  0  0  0  0
  7 27  1  0  0  0  0
  7 28  1  0  0  0  0
  8  9  1  0  0  0  0
  8 29  1  0  0  0  0
  8 30  1  0  0  0  0
  9 31  1  0  0  0  0
  9 32  1  0  0  0  0
  9 33  1  0  0  0  0
 10 11  1  0  0  0  0
 10 34  1  0  0  0  0
 10 35  1  0  0  0  0
 11 12  1  0  0  0  0
 11 36  1  0  0  0  0
 11 37  1  0  0  0  0
 12 13  1  0  0  0  0
 12 38  1  0  0  0  0
 12 39  1  0  0  0  0
 13 40  1  0  0  0  0
 13 41  1  0  0  0  0
 13 42  1  0  0  0  0
 14 15  1  0  0  0  0
 14 16  2  0  0  0  0
 15 17  2  0  0  0  0
 15 43  1  0  0  0  0
 16 18  1  0  0  0  0
 16 44  1  0  0  0  0
 17 19  1  0  0  0  0
 17 45  1  0  0  0  0
 18 19  2  0  0  0  0
 18 46  1  0  0  0  0
 19 47  1  0  0  0  0
 20 21  1  0  0  0  0
 20 24  2  0  0  0  0
 21 22  1  0  0  0  0
 22 23  1  0  0  0  0
 22 48  1  0  0  0  0
 22 49  1  0  0  0  0
 23 50  1  0  0  0  0
 23 51  1  0  0  0  0
 23 52  1  0  0  0  0
M  END
> <NMREDATA_VERSION>
1.1

> <NMREDATA_LEVEL>
0

> <NMREDATA_FORMULA>
C17H28NO5P

> <NMREDATA_SMILES>
CCCCOP(=O)(N(c1ccccc1)C(=O)OCC)OCCCC

> <NMREDATA_ASSIGNMENT>
P1, -1.00, 1

> <NMREDATA_1D_31P>
-1.00, L=P1

$$$$
