
 OpenBabel08102311322D

 38 39  0  0  0  0  0  0  0  0999 V2000
    9.9189  -12.3706    0.0000 P   0  0  0  0  0  0  0  0  0  0  0  0
    9.8228  -10.3676    0.0000 O   0  0  0  0  0  0  0  0  0  0  0  0
    8.3165  -12.4187    0.0000 O   0  0  0  0  0  0  0  0  0  0  0  0
    8.8133  -14.0692    0.0000 O   0  0  0  0  0  0  0  0  0  0  0  0
    6.7622  -12.4668    0.0000 C   0  0  0  0  0  0  0  0  0  0  0  0
    7.3070  -14.0692    0.0000 C   0  0  0  0  0  0  0  0  0  0  0  0
   11.7136  -13.0757    0.0000 C   0  0  3  0  0  0  0  0  0  0  0  0
   12.0115  -15.0564    0.0000 C   0  0  0  0  0  0  0  0  0  0  0  0
   10.4157  -15.5754    0.0000 O   0  0  0  0  0  0  0  0  0  0  0  0
   12.7231  -15.9760    0.0000 O   0  0  0  0  0  0  0  0  0  0  0  0
   12.1281  -17.4293    0.0000 C   0  0  0  0  0  0  0  0  0  0  0  0
   13.1718  -12.5629    0.0000 C   0  0  3  0  0  0  0  0  0  0  0  0
   14.3736  -13.8769    0.0000 P   0  0  0  0  0  0  0  0  0  0  0  0
   14.9665  -12.6270    0.0000 O   0  0  0  0  0  0  0  0  0  0  0  0
   15.9280  -14.0692    0.0000 O   0  0  0  0  0  0  0  0  0  0  0  0
   14.7742  -15.3671    0.0000 O   0  0  0  0  0  0  0  0  0  0  0  0
   16.2324  -16.2805    0.0000 C   0  0  0  0  0  0  0  0  0  0  0  0
   17.1778  -14.7261    0.0000 C   0  0  0  0  0  0  0  0  0  0  0  0
   13.0757  -10.4157    0.0000 C   0  0  0  0  0  0  0  0  0  0  0  0
   14.3857   -9.5791    0.0000 O   0  0  0  0  0  0  0  0  0  0  0  0
   11.6962   -9.6995    0.0000 O   0  0  0  0  0  0  0  0  0  0  0  0
   15.7652  -10.2952    0.0000 C   0  0  0  0  0  0  0  0  0  0  0  0
    5.8828  -11.8573    0.0000 H   0  0  0  0  0  0  0  0  0  0  0  0
    5.9080  -13.1111    0.0000 H   0  0  0  0  0  0  0  0  0  0  0  0
    6.6840  -14.9391    0.0000 H   0  0  0  0  0  0  0  0  0  0  0  0
    7.7960  -15.0209    0.0000 H   0  0  0  0  0  0  0  0  0  0  0  0
   10.8768  -13.7426    0.0000 H   0  0  0  0  0  0  0  0  0  0  0  0
   11.0678  -17.5733    0.0000 H   0  0  0  0  0  0  0  0  0  0  0  0
   12.7830  -18.2755    0.0000 H   0  0  0  0  0  0  0  0  0  0  0  0
   11.7227  -18.4195    0.0000 H   0  0  0  0  0  0  0  0  0  0  0  0
   12.9113  -13.6007    0.0000 H   0  0  0  0  0  0  0  0  0  0  0  0
   16.4788  -17.3217    0.0000 H   0  0  0  0  0  0  0  0  0  0  0  0
   17.2892  -16.4478    0.0000 H   0  0  0  0  0  0  0  0  0  0  0  0
   18.2090  -14.4405    0.0000 H   0  0  0  0  0  0  0  0  0  0  0  0
   17.2919  -13.6622    0.0000 H   0  0  0  0  0  0  0  0  0  0  0  0
   15.8131  -11.3641    0.0000 H   0  0  0  0  0  0  0  0  0  0  0  0
   16.6670   -9.7192    0.0000 H   0  0  0  0  0  0  0  0  0  0  0  0
   16.7149  -10.7882    0.0000 H   0  0  0  0  0  0  0  0  0  0  0  0
  1  2  2  0  0  0  0
  1  3  1  0  0  0  0
  1  4  1  0  0  0  0
  1  7  1  0  0  0  0
  3  5  1  0  0  0  0
  5  6  1  0  0  0  0
  5 23  1  0  0  0  0
  5 24  1  0  0  0  0
  6  4  1  0  0  0  0
  6 25  1  0  0  0  0
  6 26  1  0  0  0  0
  7  8  1  0  0  0  0
  7 12  1  0  0  0  0
  7 27  1  0  0  0  0
  8  9  2  0  0  0  0
  8 10  1  0  0  0  0
 10 11  1  0  0  0  0
 11 28  1  0  0  0  0
 11 29  1  0  0  0  0
 11 30  1  0  0  0  0
 12 13  1  0  0  0  0
 12 19  1  0  0  0  0
 12 31  1  0  0  0  0
 13 14  2  0  0  0  0
 13 15  1  0  0  0  0
 13 16  1  0  0  0  0
 15 18  1  0  0  0  0
 16 17  1  0  0  0  0
 17 18  1  0  0  0  0
 17 32  1  0  0  0  0
 17 33  1  0  0  0  0
 18 34  1  0  0  0  0
 18 35  1  0  0  0  0
 19 20  1  0  0  0  0
 19 21  2  0  0  0  0
 20 22  1  0  0  0  0
 22 36  1  0  0  0  0
 22 37  1  0  0  0  0
 22 38  1  0  0  0  0
M  END
> <NMREDATA_VERSION>
1.1

> <NMREDATA_LEVEL>
0

> <NMREDATA_FORMULA>
C10H16O10P2

> <NMREDATA_SMILES>
COC(=O)C(P1(=O)OCCO1)C(P1(=O)OCCO1)C(=O)OC

> <NMREDATA_ASSIGNMENT>
P1, 31.00, 1
P13, 31.00, 13

> <NMREDATA_1D_31P>
31.00, L=P1
31.00, L=P13

$$$$
