
 OpenBabel08102311322D

 58 60  0  0  0  0  0  0  0  0999 V2000
   14.9165  -14.4457    0.0000 C    0  0  0  0  0  0  0  0  0  0  0  0
   14.9165  -15.7757    0.0000 C    0  0  0  0  0  0  0  0  0  0  0  0
   13.7646  -13.7807    0.0000 C    0  0  0  0  0  0  0  0  0  0  0  0
   13.7646  -16.4407    0.0000 C    0  0  0  0  0  0  0  0  0  0  0  0
   12.6129  -14.4457    0.0000 C    0  0  0  0  0  0  0  0  0  0  0  0
   12.6129  -15.7757    0.0000 C    0  0  0  0  0  0  0  0  0  0  0  0
   10.6221  -15.4552    0.0000 C    0  0  0  0  0  0  0  0  0  0  0  0
   10.6221  -16.7852    0.0000 C    0  0  0  0  0  0  0  0  0  0  0  0
    9.4702  -14.7902    0.0000 C    0  0  0  0  0  0  0  0  0  0  0  0
    9.4702  -17.4502    0.0000 C    0  0  0  0  0  0  0  0  0  0  0  0
    8.3184  -15.4552    0.0000 C    0  0  0  0  0  0  0  0  0  0  0  0
    8.3184  -16.7852    0.0000 C    0  0  0  0  0  0  0  0  0  0  0  0
   13.6186  -10.5038    0.0000 C    0  0  0  0  0  0  0  0  0  0  0  0
   13.6186  -11.8338    0.0000 C    0  0  0  0  0  0  0  0  0  0  0  0
   12.4667   -9.8388    0.0000 P    0  3  0  0  0  0  0  0  0  0  0  0
   12.4667  -12.4988    0.0000 P    0  3  0  0  0  0  0  0  0  0  0  0
   11.3149  -10.5038    0.0000 C    0  0  0  0  0  0  0  0  0  0  0  0
   11.3149  -11.8338    0.0000 C    0  0  0  0  0  0  0  0  0  0  0  0
   10.3817   -5.9049    0.0000 C    0  0  0  0  0  0  0  0  0  0  0  0
   10.3817   -7.2349    0.0000 C    0  0  0  0  0  0  0  0  0  0  0  0
    9.2298   -5.2399    0.0000 C    0  0  0  0  0  0  0  0  0  0  0  0
    9.2298   -7.8999    0.0000 C    0  0  0  0  0  0  0  0  0  0  0  0
    8.0780   -5.9049    0.0000 C    0  0  0  0  0  0  0  0  0  0  0  0
    8.0780   -7.2349    0.0000 C    0  0  0  0  0  0  0  0  0  0  0  0
   16.9196   -6.3055    0.0000 C    0  0  0  0  0  0  0  0  0  0  0  0
   16.9196   -7.6355    0.0000 C    0  0  0  0  0  0  0  0  0  0  0  0
   15.7677   -5.6405    0.0000 C    0  0  0  0  0  0  0  0  0  0  0  0
   15.7677   -8.3005    0.0000 C    0  0  0  0  0  0  0  0  0  0  0  0
   14.6159   -6.3055    0.0000 C    0  0  0  0  0  0  0  0  0  0  0  0
   14.6159   -7.6355    0.0000 C    0  0  0  0  0  0  0  0  0  0  0  0
   16.6971  -10.9765    0.0000 Br   0  5  0  0  0  0  0  0  0  0  0  0
   18.0271  -12.7872    0.0000 Br   0  5  0  0  0  0  0  0  0  0  0  0
   15.8102  -13.9297    0.0000 H    0  0  0  0  0  0  0  0  0  0  0  0
   15.8102  -16.2917    0.0000 H    0  0  0  0  0  0  0  0  0  0  0  0
   13.7646  -17.4727    0.0000 H    0  0  0  0  0  0  0  0  0  0  0  0
   11.7192  -13.9297    0.0000 H    0  0  0  0  0  0  0  0  0  0  0  0
   11.7192  -16.2917    0.0000 H    0  0  0  0  0  0  0  0  0  0  0  0
   11.5158  -14.9392    0.0000 H    0  0  0  0  0  0  0  0  0  0  0  0
   11.5158  -17.3012    0.0000 H    0  0  0  0  0  0  0  0  0  0  0  0
    9.4702  -18.4822    0.0000 H    0  0  0  0  0  0  0  0  0  0  0  0
    7.4247  -14.9392    0.0000 H    0  0  0  0  0  0  0  0  0  0  0  0
    7.4247  -17.3012    0.0000 H    0  0  0  0  0  0  0  0  0  0  0  0
   14.5123   -9.9878    0.0000 H    0  0  0  0  0  0  0  0  0  0  0  0
   14.5123  -12.3498    0.0000 H    0  0  0  0  0  0  0  0  0  0  0  0
   10.3883   -9.9688    0.0000 H    0  0  0  0  0  0  0  0  0  0  0  0
   10.3883  -11.0388    0.0000 H    0  0  0  0  0  0  0  0  0  0  0  0
   10.3883  -12.3688    0.0000 H    0  0  0  0  0  0  0  0  0  0  0  0
   10.3883  -11.2988    0.0000 H    0  0  0  0  0  0  0  0  0  0  0  0
   11.2754   -5.3889    0.0000 H    0  0  0  0  0  0  0  0  0  0  0  0
    9.2298   -4.2079    0.0000 H    0  0  0  0  0  0  0  0  0  0  0  0
    9.2298   -8.9319    0.0000 H    0  0  0  0  0  0  0  0  0  0  0  0
    7.1843   -5.3889    0.0000 H    0  0  0  0  0  0  0  0  0  0  0  0
    7.1843   -7.7509    0.0000 H    0  0  0  0  0  0  0  0  0  0  0  0
   17.8133   -5.7895    0.0000 H    0  0  0  0  0  0  0  0  0  0  0  0
   17.8133   -8.1515    0.0000 H    0  0  0  0  0  0  0  0  0  0  0  0
   15.7677   -4.6085    0.0000 H    0  0  0  0  0  0  0  0  0  0  0  0
   15.7677   -9.3325    0.0000 H    0  0  0  0  0  0  0  0  0  0  0  0
   13.7222   -5.7895    0.0000 H    0  0  0  0  0  0  0  0  0  0  0  0
  1  2  1  0  0  0  0
  1  3  2  0  0  0  0
  1 33  1  0  0  0  0
  2  4  2  0  0  0  0
  2 34  1  0  0  0  0
  3  5  1  0  0  0  0
  3 16  1  0  0  0  0
  4  6  1  0  0  0  0
  4 35  1  0  0  0  0
  5  6  2  0  0  0  0
  5 36  1  0  0  0  0
  6 37  1  0  0  0  0
  7  8  1  0  0  0  0
  7  9  2  0  0  0  0
  7 38  1  0  0  0  0
  8 10  2  0  0  0  0
  8 39  1  0  0  0  0
  9 11  1  0  0  0  0
  9 16  1  0  0  0  0
 10 12  1  0  0  0  0
 10 40  1  0  0  0  0
 11 12  2  0  0  0  0
 11 41  1  0  0  0  0
 12 42  1  0  0  0  0
 13 14  2  0  0  0  0
 13 15  1  0  0  0  0
 13 43  1  0  0  0  0
 14 16  1  0  0  0  0
 14 44  1  0  0  0  0
 15 17  1  0  0  0  0
 15 20  1  0  0  0  0
 15 30  1  0  0  0  0
 16 18  1  0  0  0  0
 17 18  1  0  0  0  0
 17 45  1  0  0  0  0
 17 46  1  0  0  0  0
 18 47  1  0  0  0  0
 18 48  1  0  0  0  0
 19 20  1  0  0  0  0
 19 21  2  0  0  0  0
 19 49  1  0  0  0  0
 20 22  2  0  0  0  0
 21 23  1  0  0  0  0
 21 50  1  0  0  0  0
 22 24  1  0  0  0  0
 22 51  1  0  0  0  0
 23 24  2  0  0  0  0
 23 52  1  0  0  0  0
 24 53  1  0  0  0  0
 25 26  1  0  0  0  0
 25 27  2  0  0  0  0
 25 54  1  0  0  0  0
 26 28  2  0  0  0  0
 26 55  1  0  0  0  0
 27 29  1  0  0  0  0
 27 56  1  0  0  0  0
 28 30  1  0  0  0  0
 28 57  1  0  0  0  0
 29 30  2  0  0  0  0
 29 58  1  0  0  0  0
M  END
> <NMREDATA_VERSION>
1.1

> <NMREDATA_LEVEL>
0

> <NMREDATA_FORMULA>
C28H30Br2P2

> <NMREDATA_SMILES>
c1ccc(cc1)[P+]1(CC[P+](C=C1)(c1ccccc1)c1ccccc1)c1ccccc1.[Br-].[Br-]

> <NMREDATA_ASSIGNMENT>
P15, 2.80, 15
P16, 2.80, 16

> <NMREDATA_1D_31P>
2.80, L=P15
2.80, L=P16

$$$$
