
 OpenBabel08102311302D

 10  9  0  0  0  0  0  0  0  0999 V2000
    8.1763   -5.8123    0.0000 F   0  0  0  0  0  0  0  0  0  0  0  0
    8.1763   -7.3022    0.0000 P   0  0  0  0  0  0  0  0  0  0  0  0
    6.8860   -8.0471    0.0000 F   0  0  0  0  0  0  0  0  0  0  0  0
    9.4666   -8.0471    0.0000 N   0  0  0  0  0  0  0  0  0  0  0  0
   10.7569   -5.8123    0.0000 F   0  0  0  0  0  0  0  0  0  0  0  0
   10.7569   -7.3022    0.0000 P   0  0  0  0  0  0  0  0  0  0  0  0
   12.0472   -8.0471    0.0000 F   0  0  0  0  0  0  0  0  0  0  0  0
   10.7569  -10.2819    0.0000 F   0  0  0  0  0  0  0  0  0  0  0  0
    9.4666   -9.5370    0.0000 P   0  0  0  0  0  0  0  0  0  0  0  0
    8.1763  -10.2819    0.0000 F   0  0  0  0  0  0  0  0  0  0  0  0
  1  2  1  0  0  0  0
  2  3  1  0  0  0  0
  2  4  1  0  0  0  0
  4  6  1  0  0  0  0
  4  9  1  0  0  0  0
  5  6  1  0  0  0  0
  6  7  1  0  0  0  0
  8  9  1  0  0  0  0
  9 10  1  0  0  0  0
M  END
> <NMREDATA_VERSION>
1.1

> <NMREDATA_LEVEL>
0

> <NMREDATA_FORMULA>
F6NP3

> <NMREDATA_SMILES>
FP(N(P(F)F)P(F)F)F

> <NMREDATA_ASSIGNMENT>
P2, 150.30, 2
P6, 150.30, 6
P9, 150.30, 9

> <NMREDATA_1D_31P>
150.30, L=P2
150.30, L=P6
150.30, L=P9

$$$$
