
 OpenBabel04012508592D

 90 90  0  0  0  0  0  0  0  0999 V2000
   19.3306  -16.2666    0.0000 Si   0  0  0  0  0  0  0  0  0  0  0  0
   19.1222  -13.8776    0.0000 C    0  0  0  0  0  0  0  0  0  0  0  0
   19.5390  -18.6722    0.0000 C    0  0  0  0  0  0  0  0  0  0  0  0
   16.9250  -16.4750    0.0000 C    0  0  0  0  0  0  0  0  0  0  0  0
   21.7196  -16.0743    0.0000 N    0  0  0  0  0  0  0  0  0  0  0  0
   19.4104   -9.9015    0.0000 Si   0  0  0  0  0  0  0  0  0  0  0  0
   20.0200  -12.2262    0.0000 C    0  0  0  0  0  0  0  0  0  0  0  0
   18.7853   -7.5762    0.0000 C    0  0  0  0  0  0  0  0  0  0  0  0
   17.0857  -10.5266    0.0000 C    0  0  0  0  0  0  0  0  0  0  0  0
   21.7196  -12.6751    0.0000 C    0  0  0  0  0  0  0  0  0  0  0  0
   23.4192  -10.9755    0.0000 P    0  0  3  0  0  0  0  0  0  0  0  0
   21.7196   -9.2758    0.0000 N    0  0  0  0  0  0  0  0  0  0  0  0
   22.3452   -6.9506    0.0000 Si   0  0  0  0  0  0  0  0  0  0  0  0
   24.6539   -7.5762    0.0000 C    0  0  0  0  0  0  0  0  0  0  0  0
   20.0200   -6.3416    0.0000 C    0  0  0  0  0  0  0  0  0  0  0  0
   22.9703   -4.6414    0.0000 C    0  0  0  0  0  0  0  0  0  0  0  0
   27.5078   -9.0835    0.0000 Si   0  0  0  0  0  0  0  0  0  0  0  0
   27.7162  -11.4725    0.0000 C    0  0  0  0  0  0  0  0  0  0  0  0
   27.2995   -6.6780    0.0000 C    0  0  0  0  0  0  0  0  0  0  0  0
   29.9134   -8.8752    0.0000 C    0  0  0  0  0  0  0  0  0  0  0  0
   25.1188   -9.2758    0.0000 N    0  0  0  0  0  0  0  0  0  0  0  0
   25.1188  -12.6751    0.0000 C    0  0  0  0  0  0  0  0  0  0  0  0
   23.4192  -14.3747    0.0000 P    0  0  3  0  0  0  0  0  0  0  0  0
   27.4280  -15.4487    0.0000 Si   0  0  0  0  0  0  0  0  0  0  0  0
   26.8185  -13.1239    0.0000 C    0  0  0  0  0  0  0  0  0  0  0  0
   28.0531  -17.7739    0.0000 C    0  0  0  0  0  0  0  0  0  0  0  0
   29.7527  -14.8236    0.0000 C    0  0  0  0  0  0  0  0  0  0  0  0
   25.1188  -16.0743    0.0000 N    0  0  0  0  0  0  0  0  0  0  0  0
   24.4932  -18.3995    0.0000 Si   0  0  0  0  0  0  0  0  0  0  0  0
   22.1846  -17.7739    0.0000 C    0  0  0  0  0  0  0  0  0  0  0  0
   26.8185  -19.0086    0.0000 C    0  0  0  0  0  0  0  0  0  0  0  0
   23.8681  -20.7087    0.0000 C    0  0  0  0  0  0  0  0  0  0  0  0
   19.9988  -13.2641    0.0000 H    0  0  0  0  0  0  0  0  0  0  0  0
   18.1526  -13.4252    0.0000 H    0  0  0  0  0  0  0  0  0  0  0  0
   19.0292  -12.8116    0.0000 H    0  0  0  0  0  0  0  0  0  0  0  0
   18.6620  -19.2852    0.0000 H    0  0  0  0  0  0  0  0  0  0  0  0
   20.5084  -19.1252    0.0000 H    0  0  0  0  0  0  0  0  0  0  0  0
   19.6313  -19.7382    0.0000 H    0  0  0  0  0  0  0  0  0  0  0  0
   16.3120  -15.5980    0.0000 H    0  0  0  0  0  0  0  0  0  0  0  0
   16.4720  -17.4444    0.0000 H    0  0  0  0  0  0  0  0  0  0  0  0
   15.8590  -16.5673    0.0000 H    0  0  0  0  0  0  0  0  0  0  0  0
   19.2594  -12.9787    0.0000 H    0  0  0  0  0  0  0  0  0  0  0  0
   21.0520  -12.5087    0.0000 H    0  0  0  0  0  0  0  0  0  0  0  0
   20.2914  -13.2612    0.0000 H    0  0  0  0  0  0  0  0  0  0  0  0
   19.5413   -6.8190    0.0000 H    0  0  0  0  0  0  0  0  0  0  0  0
   17.7515   -7.3001    0.0000 H    0  0  0  0  0  0  0  0  0  0  0  0
   18.5075   -6.5429    0.0000 H    0  0  0  0  0  0  0  0  0  0  0  0
   16.3284   -9.7707    0.0000 H    0  0  0  0  0  0  0  0  0  0  0  0
   16.8097  -11.5604    0.0000 H    0  0  0  0  0  0  0  0  0  0  0  0
   16.0524  -10.8044    0.0000 H    0  0  0  0  0  0  0  0  0  0  0  0
   20.6496  -12.6751    0.0000 H    0  0  0  0  0  0  0  0  0  0  0  0
   21.3101  -13.6637    0.0000 H    0  0  0  0  0  0  0  0  0  0  0  0
   24.9279   -8.6105    0.0000 H    0  0  0  0  0  0  0  0  0  0  0  0
   25.4126   -6.8217    0.0000 H    0  0  0  0  0  0  0  0  0  0  0  0
   25.6867   -7.8561    0.0000 H    0  0  0  0  0  0  0  0  0  0  0  0
   19.7372   -5.3096    0.0000 H    0  0  0  0  0  0  0  0  0  0  0  0
   19.2677   -7.1025    0.0000 H    0  0  0  0  0  0  0  0  0  0  0  0
   18.9849   -6.0705    0.0000 H    0  0  0  0  0  0  0  0  0  0  0  0
   24.0045   -4.3671    0.0000 H    0  0  0  0  0  0  0  0  0  0  0  0
   22.2156   -3.8829    0.0000 H    0  0  0  0  0  0  0  0  0  0  0  0
   23.2499   -3.6086    0.0000 H    0  0  0  0  0  0  0  0  0  0  0  0
   26.8396  -12.0860    0.0000 H    0  0  0  0  0  0  0  0  0  0  0  0
   28.6858  -11.9249    0.0000 H    0  0  0  0  0  0  0  0  0  0  0  0
   27.8092  -12.5385    0.0000 H    0  0  0  0  0  0  0  0  0  0  0  0
   28.1765   -6.0651    0.0000 H    0  0  0  0  0  0  0  0  0  0  0  0
   26.3302   -6.2249    0.0000 H    0  0  0  0  0  0  0  0  0  0  0  0
   27.2072   -5.6120    0.0000 H    0  0  0  0  0  0  0  0  0  0  0  0
   30.5263   -9.7522    0.0000 H    0  0  0  0  0  0  0  0  0  0  0  0
   30.3665   -7.9059    0.0000 H    0  0  0  0  0  0  0  0  0  0  0  0
   30.9794   -8.7829    0.0000 H    0  0  0  0  0  0  0  0  0  0  0  0
   26.1888  -12.6751    0.0000 H    0  0  0  0  0  0  0  0  0  0  0  0
   25.5283  -13.6637    0.0000 H    0  0  0  0  0  0  0  0  0  0  0  0
   27.5792  -12.3714    0.0000 H    0  0  0  0  0  0  0  0  0  0  0  0
   25.7865  -12.8414    0.0000 H    0  0  0  0  0  0  0  0  0  0  0  0
   26.5471  -12.0889    0.0000 H    0  0  0  0  0  0  0  0  0  0  0  0
   27.2971  -18.5311    0.0000 H    0  0  0  0  0  0  0  0  0  0  0  0
   29.0869  -18.0500    0.0000 H    0  0  0  0  0  0  0  0  0  0  0  0
   28.3309  -18.8072    0.0000 H    0  0  0  0  0  0  0  0  0  0  0  0
   30.5100  -15.5795    0.0000 H    0  0  0  0  0  0  0  0  0  0  0  0
   30.0287  -13.7898    0.0000 H    0  0  0  0  0  0  0  0  0  0  0  0
   30.7860  -14.5458    0.0000 H    0  0  0  0  0  0  0  0  0  0  0  0
   21.9106  -16.7396    0.0000 H    0  0  0  0  0  0  0  0  0  0  0  0
   21.4259  -18.5284    0.0000 H    0  0  0  0  0  0  0  0  0  0  0  0
   21.1518  -17.4940    0.0000 H    0  0  0  0  0  0  0  0  0  0  0  0
   27.1012  -20.0406    0.0000 H    0  0  0  0  0  0  0  0  0  0  0  0
   27.5708  -18.2478    0.0000 H    0  0  0  0  0  0  0  0  0  0  0  0
   27.8536  -19.2797    0.0000 H    0  0  0  0  0  0  0  0  0  0  0  0
   22.8339  -20.9830    0.0000 H    0  0  0  0  0  0  0  0  0  0  0  0
   24.6228  -21.4672    0.0000 H    0  0  0  0  0  0  0  0  0  0  0  0
   23.5885  -21.7415    0.0000 H    0  0  0  0  0  0  0  0  0  0  0  0
  1  2  1  0  0  0  0
  1  3  1  0  0  0  0
  1  4  1  0  0  0  0
  1  5  1  0  0  0  0
  2 33  1  0  0  0  0
  2 34  1  0  0  0  0
  2 35  1  0  0  0  0
  3 36  1  0  0  0  0
  3 37  1  0  0  0  0
  3 38  1  0  0  0  0
  4 39  1  0  0  0  0
  4 40  1  0  0  0  0
  4 41  1  0  0  0  0
  5 23  2  0  0  0  0
  6  7  1  0  0  0  0
  6  8  1  0  0  0  0
  6  9  1  0  0  0  0
  6 12  1  0  0  0  0
  7 42  1  0  0  0  0
  7 43  1  0  0  0  0
  7 44  1  0  0  0  0
  8 45  1  0  0  0  0
  8 46  1  0  0  0  0
  8 47  1  0  0  0  0
  9 48  1  0  0  0  0
  9 49  1  0  0  0  0
  9 50  1  0  0  0  0
 10 11  1  0  0  0  0
 10 23  1  0  0  0  0
 10 51  1  0  0  0  0
 10 52  1  0  0  0  0
 11 12  1  0  0  0  0
 11 21  2  0  0  0  0
 11 22  1  0  0  0  0
 12 13  1  0  0  0  0
 13 14  1  0  0  0  0
 13 15  1  0  0  0  0
 13 16  1  0  0  0  0
 14 53  1  0  0  0  0
 14 54  1  0  0  0  0
 14 55  1  0  0  0  0
 15 56  1  0  0  0  0
 15 57  1  0  0  0  0
 15 58  1  0  0  0  0
 16 59  1  0  0  0  0
 16 60  1  0  0  0  0
 16 61  1  0  0  0  0
 17 18  1  0  0  0  0
 17 19  1  0  0  0  0
 17 20  1  0  0  0  0
 17 21  1  0  0  0  0
 18 62  1  0  0  0  0
 18 63  1  0  0  0  0
 18 64  1  0  0  0  0
 19 65  1  0  0  0  0
 19 66  1  0  0  0  0
 19 67  1  0  0  0  0
 20 68  1  0  0  0  0
 20 69  1  0  0  0  0
 20 70  1  0  0  0  0
 22 23  1  0  0  0  0
 22 71  1  0  0  0  0
 22 72  1  0  0  0  0
 23 28  1  0  0  0  0
 24 25  1  0  0  0  0
 24 26  1  0  0  0  0
 24 27  1  0  0  0  0
 24 28  1  0  0  0  0
 25 73  1  0  0  0  0
 25 74  1  0  0  0  0
 25 75  1  0  0  0  0
 26 76  1  0  0  0  0
 26 77  1  0  0  0  0
 26 78  1  0  0  0  0
 27 79  1  0  0  0  0
 27 80  1  0  0  0  0
 27 81  1  0  0  0  0
 28 29  1  0  0  0  0
 29 30  1  0  0  0  0
 29 31  1  0  0  0  0
 29 32  1  0  0  0  0
 30 82  1  0  0  0  0
 30 83  1  0  0  0  0
 30 84  1  0  0  0  0
 31 85  1  0  0  0  0
 31 86  1  0  0  0  0
 31 87  1  0  0  0  0
 32 88  1  0  0  0  0
 32 89  1  0  0  0  0
 32 90  1  0  0  0  0
M  END
> <NMREDATA_VERSION>
1.1

> <NMREDATA_LEVEL>
0

> <NMREDATA_FORMULA>
C20H58N4P2Si6

> <NMREDATA_SMILES>
C[Si](N=P1(CP(=N[Si](C)(C)C)(C1)N([Si](C)(C)C)[Si](C)(C)C)N([Si](C)(C)C)[Si](C)(C)C)(C)C

> <NMREDATA_ASSIGNMENT>
P11, -23.80, 11
P23, -23.80, 23

> <NMREDATA_1D_31P>
-23.80, L=P11
-23.80, L=P23

$$$$
