
 OpenBabel08102311312D

 82 85  0  0  0  0  0  0  0  0999 V2000
    4.7157   -5.1156    0.0000 P   0  0  0  0  0  0  0  0  0  0  0  0
    3.3857   -5.1156    0.0000 C   0  0  0  0  0  0  0  0  0  0  0  0
    2.7207   -6.2675    0.0000 C   0  0  0  0  0  0  0  0  0  0  0  0
    2.7207   -3.9638    0.0000 C   0  0  0  0  0  0  0  0  0  0  0  0
    1.3907   -6.2675    0.0000 C   0  0  0  0  0  0  0  0  0  0  0  0
    1.3907   -3.9638    0.0000 C   0  0  0  0  0  0  0  0  0  0  0  0
    0.7257   -5.1156    0.0000 C   0  0  0  0  0  0  0  0  0  0  0  0
    5.3807   -3.9638    0.0000 C   0  0  0  0  0  0  0  0  0  0  0  0
    4.7157   -2.8120    0.0000 C   0  0  0  0  0  0  0  0  0  0  0  0
    6.7107   -3.9638    0.0000 C   0  0  0  0  0  0  0  0  0  0  0  0
    5.3807   -1.6602    0.0000 C   0  0  0  0  0  0  0  0  0  0  0  0
    7.3757   -2.8120    0.0000 C   0  0  0  0  0  0  0  0  0  0  0  0
    6.7107   -1.6602    0.0000 C   0  0  0  0  0  0  0  0  0  0  0  0
    3.3857   -2.8120    0.0000 C   0  0  0  0  0  0  0  0  0  0  0  0
    3.3857   -7.4193    0.0000 C   0  0  0  0  0  0  0  0  0  0  0  0
    5.3807   -6.2675    0.0000 C   0  0  0  0  0  0  0  0  0  0  0  0
    6.7107   -6.2675    0.0000 C   0  0  0  0  0  0  0  0  0  0  0  0
    7.3757   -7.4193    0.0000 C   0  0  0  0  0  0  0  0  0  0  0  0
    8.7057   -7.4193    0.0000 C   0  0  0  0  0  0  0  0  0  0  0  0
    9.3707   -8.5711    0.0000 C   0  0  0  0  0  0  0  0  0  0  0  0
   10.7007   -8.5711    0.0000 C   0  0  0  0  0  0  0  0  0  0  0  0
   11.3657   -9.7229    0.0000 C   0  0  0  0  0  0  0  0  0  0  0  0
   12.6957   -9.7229    0.0000 C   0  0  0  0  0  0  0  0  0  0  0  0
   13.3607  -10.8747    0.0000 P   0  0  0  0  0  0  0  0  0  0  0  0
   12.6957  -12.0265    0.0000 C   0  0  0  0  0  0  0  0  0  0  0  0
   13.3607  -13.1783    0.0000 C   0  0  0  0  0  0  0  0  0  0  0  0
   11.3657  -12.0265    0.0000 C   0  0  0  0  0  0  0  0  0  0  0  0
   12.6957  -14.3301    0.0000 C   0  0  0  0  0  0  0  0  0  0  0  0
   10.7007  -13.1783    0.0000 C   0  0  0  0  0  0  0  0  0  0  0  0
   11.3657  -14.3301    0.0000 C   0  0  0  0  0  0  0  0  0  0  0  0
   14.6907  -10.8747    0.0000 C   0  0  0  0  0  0  0  0  0  0  0  0
   15.3557   -9.7229    0.0000 C   0  0  0  0  0  0  0  0  0  0  0  0
   15.3557  -12.0265    0.0000 C   0  0  0  0  0  0  0  0  0  0  0  0
   16.6857   -9.7229    0.0000 C   0  0  0  0  0  0  0  0  0  0  0  0
   16.6857  -12.0265    0.0000 C   0  0  0  0  0  0  0  0  0  0  0  0
   17.3507  -10.8747    0.0000 C   0  0  0  0  0  0  0  0  0  0  0  0
   14.6907  -13.1783    0.0000 C   0  0  0  0  0  0  0  0  0  0  0  0
   10.7007  -10.8747    0.0000 C   0  0  0  0  0  0  0  0  0  0  0  0
    3.2367   -3.0701    0.0000 H   0  0  0  0  0  0  0  0  0  0  0  0
    0.8747   -7.1612    0.0000 H   0  0  0  0  0  0  0  0  0  0  0  0
    0.8747   -3.0701    0.0000 H   0  0  0  0  0  0  0  0  0  0  0  0
   -0.3063   -5.1156    0.0000 H   0  0  0  0  0  0  0  0  0  0  0  0
    7.2267   -4.8575    0.0000 H   0  0  0  0  0  0  0  0  0  0  0  0
    4.8647   -0.7665    0.0000 H   0  0  0  0  0  0  0  0  0  0  0  0
    8.4077   -2.8120    0.0000 H   0  0  0  0  0  0  0  0  0  0  0  0
    7.2267   -0.7665    0.0000 H   0  0  0  0  0  0  0  0  0  0  0  0
    2.8507   -1.8854    0.0000 H   0  0  0  0  0  0  0  0  0  0  0  0
    2.8507   -3.7386    0.0000 H   0  0  0  0  0  0  0  0  0  0  0  0
    2.3157   -2.8120    0.0000 H   0  0  0  0  0  0  0  0  0  0  0  0
    2.8507   -8.3459    0.0000 H   0  0  0  0  0  0  0  0  0  0  0  0
    4.4557   -7.4193    0.0000 H   0  0  0  0  0  0  0  0  0  0  0  0
    3.9207   -8.3459    0.0000 H   0  0  0  0  0  0  0  0  0  0  0  0
    4.8457   -7.1941    0.0000 H   0  0  0  0  0  0  0  0  0  0  0  0
    5.9157   -7.1942    0.0000 H   0  0  0  0  0  0  0  0  0  0  0  0
    7.2457   -5.3409    0.0000 H   0  0  0  0  0  0  0  0  0  0  0  0
    7.7807   -6.2675    0.0000 H   0  0  0  0  0  0  0  0  0  0  0  0
    6.8407   -8.3459    0.0000 H   0  0  0  0  0  0  0  0  0  0  0  0
    7.9107   -8.3459    0.0000 H   0  0  0  0  0  0  0  0  0  0  0  0
    9.2407   -6.4927    0.0000 H   0  0  0  0  0  0  0  0  0  0  0  0
    9.7757   -7.4193    0.0000 H   0  0  0  0  0  0  0  0  0  0  0  0
    8.8357   -9.4977    0.0000 H   0  0  0  0  0  0  0  0  0  0  0  0
    9.9057   -9.4977    0.0000 H   0  0  0  0  0  0  0  0  0  0  0  0
   11.2357   -7.6445    0.0000 H   0  0  0  0  0  0  0  0  0  0  0  0
   11.7707   -8.5711    0.0000 H   0  0  0  0  0  0  0  0  0  0  0  0
   10.8307  -10.6495    0.0000 H   0  0  0  0  0  0  0  0  0  0  0  0
   11.9007  -10.6495    0.0000 H   0  0  0  0  0  0  0  0  0  0  0  0
   13.2307   -8.7963    0.0000 H   0  0  0  0  0  0  0  0  0  0  0  0
   13.7657   -9.7229    0.0000 H   0  0  0  0  0  0  0  0  0  0  0  0
   14.3927  -13.1783    0.0000 H   0  0  0  0  0  0  0  0  0  0  0  0
   13.2117  -15.2238    0.0000 H   0  0  0  0  0  0  0  0  0  0  0  0
    9.6687  -13.1783    0.0000 H   0  0  0  0  0  0  0  0  0  0  0  0
   10.8497  -15.2238    0.0000 H   0  0  0  0  0  0  0  0  0  0  0  0
   14.8397   -8.8292    0.0000 H   0  0  0  0  0  0  0  0  0  0  0  0
   17.2017   -8.8292    0.0000 H   0  0  0  0  0  0  0  0  0  0  0  0
   17.2017  -12.9202    0.0000 H   0  0  0  0  0  0  0  0  0  0  0  0
   18.3827  -10.8747    0.0000 H   0  0  0  0  0  0  0  0  0  0  0  0
   13.6207  -13.1783    0.0000 H   0  0  0  0  0  0  0  0  0  0  0  0
   15.2257  -14.1049    0.0000 H   0  0  0  0  0  0  0  0  0  0  0  0
   14.1557  -14.1049    0.0000 H   0  0  0  0  0  0  0  0  0  0  0  0
   11.2357   -9.9481    0.0000 H   0  0  0  0  0  0  0  0  0  0  0  0
    9.6307  -10.8747    0.0000 H   0  0  0  0  0  0  0  0  0  0  0  0
   10.1657   -9.9481    0.0000 H   0  0  0  0  0  0  0  0  0  0  0  0
  1  2  1  0  0  0  0
  1  8  1  0  0  0  0
  1 16  1  0  0  0  0
  2  3  1  0  0  0  0
  2  4  2  0  0  0  0
  3  5  2  0  0  0  0
  3 15  1  0  0  0  0
  4  6  1  0  0  0  0
  4 39  1  0  0  0  0
  5  7  1  0  0  0  0
  5 40  1  0  0  0  0
  6  7  2  0  0  0  0
  6 41  1  0  0  0  0
  7 42  1  0  0  0  0
  8  9  1  0  0  0  0
  8 10  2  0  0  0  0
  9 11  2  0  0  0  0
  9 14  1  0  0  0  0
 10 12  1  0  0  0  0
 10 43  1  0  0  0  0
 11 13  1  0  0  0  0
 11 44  1  0  0  0  0
 12 13  2  0  0  0  0
 12 45  1  0  0  0  0
 13 46  1  0  0  0  0
 14 47  1  0  0  0  0
 14 48  1  0  0  0  0
 14 49  1  0  0  0  0
 15 50  1  0  0  0  0
 15 51  1  0  0  0  0
 15 52  1  0  0  0  0
 16 17  1  0  0  0  0
 16 53  1  0  0  0  0
 16 54  1  0  0  0  0
 17 18  1  0  0  0  0
 17 55  1  0  0  0  0
 17 56  1  0  0  0  0
 18 19  1  0  0  0  0
 18 57  1  0  0  0  0
 18 58  1  0  0  0  0
 19 20  1  0  0  0  0
 19 59  1  0  0  0  0
 19 60  1  0  0  0  0
 20 21  1  0  0  0  0
 20 61  1  0  0  0  0
 20 62  1  0  0  0  0
 21 22  1  0  0  0  0
 21 63  1  0  0  0  0
 21 64  1  0  0  0  0
 22 23  1  0  0  0  0
 22 65  1  0  0  0  0
 22 66  1  0  0  0  0
 23 24  1  0  0  0  0
 23 67  1  0  0  0  0
 23 68  1  0  0  0  0
 24 25  1  0  0  0  0
 24 31  1  0  0  0  0
 25 26  1  0  0  0  0
 25 27  2  0  0  0  0
 26 28  2  0  0  0  0
 26 69  1  0  0  0  0
 27 29  1  0  0  0  0
 27 38  1  0  0  0  0
 28 30  1  0  0  0  0
 28 70  1  0  0  0  0
 29 30  2  0  0  0  0
 29 71  1  0  0  0  0
 30 72  1  0  0  0  0
 31 32  1  0  0  0  0
 31 33  2  0  0  0  0
 32 34  2  0  0  0  0
 32 73  1  0  0  0  0
 33 35  1  0  0  0  0
 33 37  1  0  0  0  0
 34 36  1  0  0  0  0
 34 74  1  0  0  0  0
 35 36  2  0  0  0  0
 35 75  1  0  0  0  0
 36 76  1  0  0  0  0
 37 77  1  0  0  0  0
 37 78  1  0  0  0  0
 37 79  1  0  0  0  0
 38 80  1  0  0  0  0
 38 81  1  0  0  0  0
 38 82  1  0  0  0  0
M  END
> <NMREDATA_VERSION>
1.1

> <NMREDATA_LEVEL>
0

> <NMREDATA_FORMULA>
C36H44P2

> <NMREDATA_SMILES>
Cc1ccccc1P(c1ccccc1C)CCCCCCCCP(c1ccccc1C)c1ccccc1C

> <NMREDATA_ASSIGNMENT>
P1, -38.00, 1
P24, -38.00, 24

> <NMREDATA_1D_31P>
-38.00, L=P1
-38.00, L=P24

$$$$
