
 OpenBabel08102311332D

 79 80  0  0  0  0  0  0  0  0999 V2000
    8.4586   -6.6791    0.0000 C    0  0  0  0  0  0  0  0  0  0  0  0
   10.5748   -5.6871    0.0000 C    0  0  0  0  0  0  0  0  0  0  0  0
   10.5652   -7.2372    0.0000 C    0  0  0  0  0  0  0  0  0  0  0  0
    9.2329   -8.0114    0.0000 Sn   0  0  0  0  0  0  0  0  0  0  0  0
    7.9005   -8.7857    0.0000 C    0  0  0  0  0  0  0  0  0  0  0  0
    7.8909  -10.3357    0.0000 C    0  0  0  0  0  0  0  0  0  0  0  0
    6.9086   -6.6695    0.0000 C    0  0  0  0  0  0  0  0  0  0  0  0
    6.1252   -5.3319    0.0000 P    0  0  3  0  0  0  0  0  0  0  0  0
    7.4719   -4.5538    0.0000 O    0  0  0  0  0  0  0  0  0  0  0  0
    4.7890   -6.0918    0.0000 C    0  0  0  0  0  0  0  0  0  0  0  0
    5.3471   -3.9852    0.0000 C    0  0  0  0  0  0  0  0  0  0  0  0
    6.6938   -3.2071    0.0000 C    0  0  0  0  0  0  0  0  0  0  0  0
    4.0057   -4.7542    0.0000 C    0  0  0  0  0  0  0  0  0  0  0  0
    4.5694   -2.6388    0.0000 C    0  0  0  0  0  0  0  0  0  0  0  0
   10.0021   -9.3525    0.0000 C    0  0  0  0  0  0  0  0  0  0  0  0
   11.5571   -9.3533    0.0000 C    0  0  0  0  0  0  0  0  0  0  0  0
   12.3405  -10.6909    0.0000 P    0  0  3  0  0  0  0  0  0  0  0  0
   10.9938  -11.4690    0.0000 O    0  0  0  0  0  0  0  0  0  0  0  0
   13.6767   -9.9310    0.0000 C    0  0  0  0  0  0  0  0  0  0  0  0
   13.1186  -12.0376    0.0000 C    0  0  0  0  0  0  0  0  0  0  0  0
   11.7719  -12.8157    0.0000 C    0  0  0  0  0  0  0  0  0  0  0  0
   14.4600  -11.2686    0.0000 C    0  0  0  0  0  0  0  0  0  0  0  0
   13.8963  -13.3840    0.0000 C    0  0  0  0  0  0  0  0  0  0  0  0
    4.7790   -7.6325    0.0000 C    0  0  0  0  0  0  0  0  0  0  0  0
    3.4397   -8.3942    0.0000 C    0  0  0  0  0  0  0  0  0  0  0  0
    2.1104   -7.6152    0.0000 C    0  0  0  0  0  0  0  0  0  0  0  0
    2.1204   -6.0744    0.0000 C    0  0  0  0  0  0  0  0  0  0  0  0
    3.4597   -5.3127    0.0000 C    0  0  0  0  0  0  0  0  0  0  0  0
   13.6867   -8.3903    0.0000 C    0  0  0  0  0  0  0  0  0  0  0  0
   15.0260   -7.6286    0.0000 C    0  0  0  0  0  0  0  0  0  0  0  0
   16.3553   -8.4076    0.0000 C    0  0  0  0  0  0  0  0  0  0  0  0
   16.3453   -9.9484    0.0000 C    0  0  0  0  0  0  0  0  0  0  0  0
   15.0060  -10.7101    0.0000 C    0  0  0  0  0  0  0  0  0  0  0  0
    8.9951   -5.7533    0.0000 H    0  0  0  0  0  0  0  0  0  0  0  0
    7.9272   -5.7504    0.0000 H    0  0  0  0  0  0  0  0  0  0  0  0
   11.5047   -5.1578    0.0000 H    0  0  0  0  0  0  0  0  0  0  0  0
    9.6515   -5.1464    0.0000 H    0  0  0  0  0  0  0  0  0  0  0  0
   10.5814   -4.6171    0.0000 H    0  0  0  0  0  0  0  0  0  0  0  0
   11.4909   -7.7738    0.0000 H    0  0  0  0  0  0  0  0  0  0  0  0
   10.5658   -8.3072    0.0000 H    0  0  0  0  0  0  0  0  0  0  0  0
    6.9748   -8.2491    0.0000 H    0  0  0  0  0  0  0  0  0  0  0  0
    7.8999   -7.7157    0.0000 H    0  0  0  0  0  0  0  0  0  0  0  0
    6.9610  -10.8650    0.0000 H    0  0  0  0  0  0  0  0  0  0  0  0
    8.8142  -10.8764    0.0000 H    0  0  0  0  0  0  0  0  0  0  0  0
    7.8843  -11.4057    0.0000 H    0  0  0  0  0  0  0  0  0  0  0  0
    6.3736   -7.5962    0.0000 H    0  0  0  0  0  0  0  0  0  0  0  0
    5.8386   -6.6728    0.0000 H    0  0  0  0  0  0  0  0  0  0  0  0
    7.6206   -3.7418    0.0000 H    0  0  0  0  0  0  0  0  0  0  0  0
    6.6935   -2.1371    0.0000 H    0  0  0  0  0  0  0  0  0  0  0  0
    7.6203   -2.6718    0.0000 H    0  0  0  0  0  0  0  0  0  0  0  0
    3.0807   -4.2164    0.0000 H    0  0  0  0  0  0  0  0  0  0  0  0
    4.0024   -5.8242    0.0000 H    0  0  0  0  0  0  0  0  0  0  0  0
    3.0774   -5.2864    0.0000 H    0  0  0  0  0  0  0  0  0  0  0  0
    5.1042   -1.7120    0.0000 H    0  0  0  0  0  0  0  0  0  0  0  0
    3.4994   -2.6390    0.0000 H    0  0  0  0  0  0  0  0  0  0  0  0
    4.0342   -1.7123    0.0000 H    0  0  0  0  0  0  0  0  0  0  0  0
    9.4655  -10.2782    0.0000 H    0  0  0  0  0  0  0  0  0  0  0  0
    8.9321   -9.3501    0.0000 H    0  0  0  0  0  0  0  0  0  0  0  0
   12.0895   -8.4251    0.0000 H    0  0  0  0  0  0  0  0  0  0  0  0
   12.6271   -9.3484    0.0000 H    0  0  0  0  0  0  0  0  0  0  0  0
   10.8451  -12.2810    0.0000 H    0  0  0  0  0  0  0  0  0  0  0  0
   11.7722  -13.8857    0.0000 H    0  0  0  0  0  0  0  0  0  0  0  0
   10.8454  -13.3510    0.0000 H    0  0  0  0  0  0  0  0  0  0  0  0
   15.3850  -11.8064    0.0000 H    0  0  0  0  0  0  0  0  0  0  0  0
   14.4633  -10.1986    0.0000 H    0  0  0  0  0  0  0  0  0  0  0  0
   15.3883  -10.7364    0.0000 H    0  0  0  0  0  0  0  0  0  0  0  0
   13.3615  -14.3108    0.0000 H    0  0  0  0  0  0  0  0  0  0  0  0
   14.9663  -13.3838    0.0000 H    0  0  0  0  0  0  0  0  0  0  0  0
   14.4315  -14.3105    0.0000 H    0  0  0  0  0  0  0  0  0  0  0  0
    5.6694   -8.1543    0.0000 H    0  0  0  0  0  0  0  0  0  0  0  0
    3.4330   -9.4262    0.0000 H    0  0  0  0  0  0  0  0  0  0  0  0
    1.2133   -8.1254    0.0000 H    0  0  0  0  0  0  0  0  0  0  0  0
    1.2300   -5.5526    0.0000 H    0  0  0  0  0  0  0  0  0  0  0  0
    3.4664   -4.2807    0.0000 H    0  0  0  0  0  0  0  0  0  0  0  0
   12.7963   -7.8685    0.0000 H    0  0  0  0  0  0  0  0  0  0  0  0
   15.0327   -6.5966    0.0000 H    0  0  0  0  0  0  0  0  0  0  0  0
   17.2524   -7.8974    0.0000 H    0  0  0  0  0  0  0  0  0  0  0  0
   17.2357  -10.4702    0.0000 H    0  0  0  0  0  0  0  0  0  0  0  0
   14.9993  -11.7421    0.0000 H    0  0  0  0  0  0  0  0  0  0  0  0
  1  4  1  0  0  0  0
  1  7  1  0  0  0  0
  1 34  1  0  0  0  0
  1 35  1  0  0  0  0
  2  3  1  0  0  0  0
  2 36  1  0  0  0  0
  2 37  1  0  0  0  0
  2 38  1  0  0  0  0
  3  4  1  0  0  0  0
  3 39  1  0  0  0  0
  3 40  1  0  0  0  0
  4  5  1  0  0  0  0
  4 15  1  0  0  0  0
  5  6  1  0  0  0  0
  5 41  1  0  0  0  0
  5 42  1  0  0  0  0
  6 43  1  0  0  0  0
  6 44  1  0  0  0  0
  6 45  1  0  0  0  0
  7  8  1  0  0  0  0
  7 46  1  0  0  0  0
  7 47  1  0  0  0  0
  8  9  2  0  0  0  0
  8 10  1  0  0  0  0
  8 11  1  0  0  0  0
 10 24  2  0  0  0  0
 10 28  1  0  0  0  0
 11 12  1  0  0  0  0
 11 13  1  0  0  0  0
 11 14  1  0  0  0  0
 12 48  1  0  0  0  0
 12 49  1  0  0  0  0
 12 50  1  0  0  0  0
 13 51  1  0  0  0  0
 13 52  1  0  0  0  0
 13 53  1  0  0  0  0
 14 54  1  0  0  0  0
 14 55  1  0  0  0  0
 14 56  1  0  0  0  0
 15 16  1  0  0  0  0
 15 57  1  0  0  0  0
 15 58  1  0  0  0  0
 16 17  1  0  0  0  0
 16 59  1  0  0  0  0
 16 60  1  0  0  0  0
 17 18  2  0  0  0  0
 17 19  1  0  0  0  0
 17 20  1  0  0  0  0
 19 29  2  0  0  0  0
 19 33  1  0  0  0  0
 20 21  1  0  0  0  0
 20 22  1  0  0  0  0
 20 23  1  0  0  0  0
 21 61  1  0  0  0  0
 21 62  1  0  0  0  0
 21 63  1  0  0  0  0
 22 64  1  0  0  0  0
 22 65  1  0  0  0  0
 22 66  1  0  0  0  0
 23 67  1  0  0  0  0
 23 68  1  0  0  0  0
 23 69  1  0  0  0  0
 24 25  1  0  0  0  0
 24 70  1  0  0  0  0
 25 26  2  0  0  0  0
 25 71  1  0  0  0  0
 26 27  1  0  0  0  0
 26 72  1  0  0  0  0
 27 28  2  0  0  0  0
 27 73  1  0  0  0  0
 28 74  1  0  0  0  0
 29 30  1  0  0  0  0
 29 75  1  0  0  0  0
 30 31  2  0  0  0  0
 30 76  1  0  0  0  0
 31 32  1  0  0  0  0
 31 77  1  0  0  0  0
 32 33  2  0  0  0  0
 32 78  1  0  0  0  0
 33 79  1  0  0  0  0
M  END
> <NMREDATA_VERSION>
1.1

> <NMREDATA_LEVEL>
0

> <NMREDATA_FORMULA>
C28H46O2P2Sn

> <NMREDATA_SMILES>
CC[Sn](CCP(=O)(C(C)(C)C)c1ccccc1)(CCP(=O)(C(C)(C)C)c1ccccc1)CC

> <NMREDATA_ASSIGNMENT>
P8, 51.60, 8
P17, 51.60, 17

> <NMREDATA_1D_31P>
51.60, L=P8
51.60, L=P17

$$$$
