
 OpenBabel08102311332D

 14 13  0  0  0  0  0  0  0  0999 V2000
   12.6751  -13.2199    0.0000 P   0  0  0  0  0  0  0  0  0  0  0  0
   12.7712  -11.8258    0.0000 O   0  0  0  0  0  0  0  0  0  0  0  0
   14.0211  -13.4282    0.0000 O   0  0  0  0  0  0  0  0  0  0  0  0
   13.4282  -14.7742    0.0000 O   0  0  0  0  0  0  0  0  0  0  0  0
   11.5213  -13.9249    0.0000 C   0  0  0  0  0  0  0  0  0  0  0  0
   10.3251  -13.2736    0.0000 C   0  0  0  0  0  0  0  0  0  0  0  0
    8.7652  -14.0211    0.0000 P   0  0  0  0  0  0  0  0  0  0  0  0
    8.1563  -12.3706    0.0000 O   0  0  0  0  0  0  0  0  0  0  0  0
    7.5634  -14.9665    0.0000 O   0  0  0  0  0  0  0  0  0  0  0  0
    8.8613  -15.5754    0.0000 O   0  0  0  0  0  0  0  0  0  0  0  0
   14.3719  -14.3325    0.0000 H   0  0  0  0  0  0  0  0  0  0  0  0
   12.8837  -15.5770    0.0000 H   0  0  0  0  0  0  0  0  0  0  0  0
    6.6628  -14.6061    0.0000 H   0  0  0  0  0  0  0  0  0  0  0  0
    8.0528  -16.1113    0.0000 H   0  0  0  0  0  0  0  0  0  0  0  0
  1  2  2  0  0  0  0
  1  3  1  0  0  0  0
  1  4  1  0  0  0  0
  1  5  1  0  0  0  0
  3 11  1  0  0  0  0
  4 12  1  0  0  0  0
  5  6  3  0  0  0  0
  6  7  1  0  0  0  0
  7  8  2  0  0  0  0
  7  9  1  0  0  0  0
  7 10  1  0  0  0  0
  9 13  1  0  0  0  0
 10 14  1  0  0  0  0
M  END
> <NMREDATA_VERSION>
1.1

> <NMREDATA_LEVEL>
0

> <NMREDATA_FORMULA>
C2H4O6P2

> <NMREDATA_SMILES>
OP(=O)(C#CP(=O)(O)O)O

> <NMREDATA_ASSIGNMENT>
P1, -12.00, 1
P7, -12.00, 7

> <NMREDATA_1D_31P>
-12.00, L=P1
-12.00, L=P7

$$$$
