
 OpenBabel08102311302D

 38 38  0  0  0  0  0  0  0  0999 V2000
   14.0758  -12.7458    0.0000 P   0  0  3  0  0  0  0  0  0  0  0  0
   19.2407  -12.7458    0.0000 N   0  0  0  0  0  0  0  0  0  0  0  0
   19.2407  -18.6643    0.0000 P   0  0  3  0  0  0  0  0  0  0  0  0
   13.4108  -18.6643    0.0000 N   0  0  0  0  0  0  0  0  0  0  0  0
   23.4257   -8.5608    0.0000 C   0  0  0  0  0  0  0  0  0  0  0  0
   27.6107  -12.7459    0.0000 C   0  0  0  0  0  0  0  0  0  0  0  0
   19.2407   -4.3758    0.0000 C   0  0  0  0  0  0  0  0  0  0  0  0
   27.6107   -4.3758    0.0000 C   0  0  0  0  0  0  0  0  0  0  0  0
    8.9983  -22.6088    0.0000 C   0  0  0  0  0  0  0  0  0  0  0  0
    5.0539  -18.1963    0.0000 C   0  0  0  0  0  0  0  0  0  0  0  0
   12.9428  -27.0212    0.0000 C   0  0  0  0  0  0  0  0  0  0  0  0
    4.5859  -26.5532    0.0000 C   0  0  0  0  0  0  0  0  0  0  0  0
   12.1473  -11.0168    0.0000 C   0  0  0  0  0  0  0  0  0  0  0  0
   21.9893  -19.7948    0.0000 C   0  0  0  0  0  0  0  0  0  0  0  0
   27.3338  -13.7794    0.0000 H   0  0  0  0  0  0  0  0  0  0  0  0
   28.6442  -12.4690    0.0000 H   0  0  0  0  0  0  0  0  0  0  0  0
   28.3673  -13.5025    0.0000 H   0  0  0  0  0  0  0  0  0  0  0  0
   19.5176   -3.3423    0.0000 H   0  0  0  0  0  0  0  0  0  0  0  0
   18.2072   -4.6527    0.0000 H   0  0  0  0  0  0  0  0  0  0  0  0
   18.4841   -3.6192    0.0000 H   0  0  0  0  0  0  0  0  0  0  0  0
   28.6442   -4.6527    0.0000 H   0  0  0  0  0  0  0  0  0  0  0  0
   27.3338   -3.3423    0.0000 H   0  0  0  0  0  0  0  0  0  0  0  0
   28.3673   -3.6192    0.0000 H   0  0  0  0  0  0  0  0  0  0  0  0
    5.3882  -17.1799    0.0000 H   0  0  0  0  0  0  0  0  0  0  0  0
    4.0065  -18.4150    0.0000 H   0  0  0  0  0  0  0  0  0  0  0  0
    4.3408  -17.3986    0.0000 H   0  0  0  0  0  0  0  0  0  0  0  0
   12.6085  -28.0376    0.0000 H   0  0  0  0  0  0  0  0  0  0  0  0
   13.9902  -26.8025    0.0000 H   0  0  0  0  0  0  0  0  0  0  0  0
   13.6559  -27.8189    0.0000 H   0  0  0  0  0  0  0  0  0  0  0  0
    3.5695  -26.2189    0.0000 H   0  0  0  0  0  0  0  0  0  0  0  0
    4.8046  -27.6006    0.0000 H   0  0  0  0  0  0  0  0  0  0  0  0
    3.7882  -27.2663    0.0000 H   0  0  0  0  0  0  0  0  0  0  0  0
   12.3675   -9.9697    0.0000 H   0  0  0  0  0  0  0  0  0  0  0  0
   11.1304  -11.3496    0.0000 H   0  0  0  0  0  0  0  0  0  0  0  0
   11.3506  -10.3025    0.0000 H   0  0  0  0  0  0  0  0  0  0  0  0
   22.1316  -20.8553    0.0000 H   0  0  0  0  0  0  0  0  0  0  0  0
   22.8366  -19.1413    0.0000 H   0  0  0  0  0  0  0  0  0  0  0  0
   22.9789  -20.2018    0.0000 H   0  0  0  0  0  0  0  0  0  0  0  0
  1  2  1  0  0  0  0
  1 13  1  0  0  0  0
  2  3  1  0  0  0  0
  2  5  1  0  0  0  0
  3  4  1  0  0  0  0
  3 14  1  0  0  0  0
  4  1  1  0  0  0  0
  4  9  1  0  0  0  0
  5  6  1  0  0  0  0
  5  7  1  0  0  0  0
  5  8  1  0  0  0  0
  6 15  1  0  0  0  0
  6 16  1  0  0  0  0
  6 17  1  0  0  0  0
  7 18  1  0  0  0  0
  7 19  1  0  0  0  0
  7 20  1  0  0  0  0
  8 21  1  0  0  0  0
  8 22  1  0  0  0  0
  8 23  1  0  0  0  0
  9 10  1  0  0  0  0
  9 11  1  0  0  0  0
  9 12  1  0  0  0  0
 10 24  1  0  0  0  0
 10 25  1  0  0  0  0
 10 26  1  0  0  0  0
 11 27  1  0  0  0  0
 11 28  1  0  0  0  0
 11 29  1  0  0  0  0
 12 30  1  0  0  0  0
 12 31  1  0  0  0  0
 12 32  1  0  0  0  0
 13 33  1  0  0  0  0
 13 34  1  0  0  0  0
 13 35  1  0  0  0  0
 14 36  1  0  0  0  0
 14 37  1  0  0  0  0
 14 38  1  0  0  0  0
M  END
> <NMREDATA_VERSION>
1.1

> <NMREDATA_LEVEL>
0

> <NMREDATA_FORMULA>
C10H24N2P2

> <NMREDATA_SMILES>
CP1N(P(N1C(C)(C)C)C)C(C)(C)C

> <NMREDATA_ASSIGNMENT>
P1, 171.40, 1
P3, 171.40, 3

> <NMREDATA_1D_31P>
171.40, L=P1
171.40, L=P3

$$$$
