
 OpenBabel08102311312D

 34 34  0  0  0  0  0  0  0  0999 V2000
   14.1054  -12.3025    0.0000 C   0  0  0  0  0  0  0  0  0  0  0  0
   14.1054  -13.6325    0.0000 C   0  0  0  0  0  0  0  0  0  0  0  0
   12.9536  -11.6375    0.0000 C   0  0  0  0  0  0  0  0  0  0  0  0
   12.9536  -14.2975    0.0000 C   0  0  0  0  0  0  0  0  0  0  0  0
   11.8018  -12.3025    0.0000 C   0  0  0  0  0  0  0  0  0  0  0  0
   11.8018  -13.6325    0.0000 C   0  0  0  0  0  0  0  0  0  0  0  0
   12.9536  -10.3075    0.0000 C   0  0  0  0  0  0  0  0  0  0  0  0
   10.6499  -14.2975    0.0000 C   0  0  0  0  0  0  0  0  0  0  0  0
    9.4981  -13.6325    0.0000 P   0  0  0  0  0  0  0  0  0  0  0  0
    9.4981  -12.3025    0.0000 C   0  0  0  0  0  0  0  0  0  0  0  0
    8.3463  -14.2975    0.0000 C   0  0  0  0  0  0  0  0  0  0  0  0
   14.1054   -9.6425    0.0000 P   0  0  0  0  0  0  0  0  0  0  0  0
   14.1054   -8.3125    0.0000 C   0  0  0  0  0  0  0  0  0  0  0  0
   15.2572  -10.3075    0.0000 C   0  0  0  0  0  0  0  0  0  0  0  0
   14.9991  -11.7865    0.0000 H   0  0  0  0  0  0  0  0  0  0  0  0
   14.9991  -14.1485    0.0000 H   0  0  0  0  0  0  0  0  0  0  0  0
   12.9536  -15.3295    0.0000 H   0  0  0  0  0  0  0  0  0  0  0  0
   10.9081  -11.7865    0.0000 H   0  0  0  0  0  0  0  0  0  0  0  0
   12.0270   -9.7725    0.0000 H   0  0  0  0  0  0  0  0  0  0  0  0
   12.9536   -9.2375    0.0000 H   0  0  0  0  0  0  0  0  0  0  0  0
   10.6499  -15.3675    0.0000 H   0  0  0  0  0  0  0  0  0  0  0  0
    9.7232  -14.8325    0.0000 H   0  0  0  0  0  0  0  0  0  0  0  0
   10.4247  -11.7675    0.0000 H   0  0  0  0  0  0  0  0  0  0  0  0
    8.5715  -11.7675    0.0000 H   0  0  0  0  0  0  0  0  0  0  0  0
    9.4981  -11.2325    0.0000 H   0  0  0  0  0  0  0  0  0  0  0  0
    7.4197  -13.7625    0.0000 H   0  0  0  0  0  0  0  0  0  0  0  0
    8.3463  -15.3675    0.0000 H   0  0  0  0  0  0  0  0  0  0  0  0
    7.4197  -14.8325    0.0000 H   0  0  0  0  0  0  0  0  0  0  0  0
   15.0320   -7.7775    0.0000 H   0  0  0  0  0  0  0  0  0  0  0  0
   13.1788   -7.7775    0.0000 H   0  0  0  0  0  0  0  0  0  0  0  0
   14.1054   -7.2425    0.0000 H   0  0  0  0  0  0  0  0  0  0  0  0
   15.2572  -11.3775    0.0000 H   0  0  0  0  0  0  0  0  0  0  0  0
   16.1838   -9.7725    0.0000 H   0  0  0  0  0  0  0  0  0  0  0  0
   16.1838  -10.8425    0.0000 H   0  0  0  0  0  0  0  0  0  0  0  0
  1  2  1  0  0  0  0
  1  3  2  0  0  0  0
  1 15  1  0  0  0  0
  2  4  2  0  0  0  0
  2 16  1  0  0  0  0
  3  5  1  0  0  0  0
  3  7  1  0  0  0  0
  4  6  1  0  0  0  0
  4 17  1  0  0  0  0
  5  6  2  0  0  0  0
  5 18  1  0  0  0  0
  6  8  1  0  0  0  0
  7 12  1  0  0  0  0
  7 19  1  0  0  0  0
  7 20  1  0  0  0  0
  8  9  1  0  0  0  0
  8 21  1  0  0  0  0
  8 22  1  0  0  0  0
  9 10  1  0  0  0  0
  9 11  1  0  0  0  0
 10 23  1  0  0  0  0
 10 24  1  0  0  0  0
 10 25  1  0  0  0  0
 11 26  1  0  0  0  0
 11 27  1  0  0  0  0
 11 28  1  0  0  0  0
 12 13  1  0  0  0  0
 12 14  1  0  0  0  0
 13 29  1  0  0  0  0
 13 30  1  0  0  0  0
 13 31  1  0  0  0  0
 14 32  1  0  0  0  0
 14 33  1  0  0  0  0
 14 34  1  0  0  0  0
M  END
> <NMREDATA_VERSION>
1.1

> <NMREDATA_LEVEL>
0

> <NMREDATA_FORMULA>
C12H20P2

> <NMREDATA_SMILES>
CP(Cc1cccc(c1)CP(C)C)C

> <NMREDATA_ASSIGNMENT>
P9, -46.50, 9
P12, -46.50, 12

> <NMREDATA_1D_31P>
-46.50, L=P9
-46.50, L=P12

$$$$
