
 OpenBabel08102311302D

 34 34  0  0  0  0  0  0  0  0999 V2000
   22.8760  -17.6890    0.0000 P   0  0  3  0  0  0  0  0  0  0  0  0
   24.2060  -19.0190    0.0000 P   0  0  3  0  0  0  0  0  0  0  0  0
   24.2060  -17.6890    0.0000 N   0  0  0  0  0  0  0  0  0  0  0  0
   22.8761  -19.0190    0.0000 N   0  0  0  0  0  0  0  0  0  0  0  0
   20.3268  -20.4598    0.0000 C   0  0  0  0  0  0  0  0  0  0  0  0
   21.5682  -22.9868    0.0000 C   0  0  0  0  0  0  0  0  0  0  0  0
   18.4648  -20.2382    0.0000 O   0  0  0  0  0  0  0  0  0  0  0  0
   26.4448  -16.4698    0.0000 C   0  0  0  0  0  0  0  0  0  0  0  0
   27.5797  -17.1634    0.0000 C   0  0  0  0  0  0  0  0  0  0  0  0
   26.7552  -14.7408    0.0000 O   0  0  0  0  0  0  0  0  0  0  0  0
   26.8882  -20.4598    0.0000 N   0  0  0  0  0  0  0  0  0  0  0  0
   21.0583  -16.7802    0.0000 N   0  0  0  0  0  0  0  0  0  0  0  0
   29.1048  -19.4623    0.0000 C   0  0  0  0  0  0  0  0  0  0  0  0
   27.9743  -22.0115    0.0000 C   0  0  0  0  0  0  0  0  0  0  0  0
   20.3933  -15.5832    0.0000 C   0  0  0  0  0  0  0  0  0  0  0  0
   19.6175  -16.8910    0.0000 C   0  0  0  0  0  0  0  0  0  0  0  0
   20.9724  -23.8756    0.0000 H   0  0  0  0  0  0  0  0  0  0  0  0
   22.6358  -23.0584    0.0000 H   0  0  0  0  0  0  0  0  0  0  0  0
   22.0400  -23.9472    0.0000 H   0  0  0  0  0  0  0  0  0  0  0  0
   27.5530  -18.2331    0.0000 H   0  0  0  0  0  0  0  0  0  0  0  0
   28.5194  -16.6517    0.0000 H   0  0  0  0  0  0  0  0  0  0  0  0
   28.4927  -17.7214    0.0000 H   0  0  0  0  0  0  0  0  0  0  0  0
   29.9729  -20.0878    0.0000 H   0  0  0  0  0  0  0  0  0  0  0  0
   29.2124  -18.3977    0.0000 H   0  0  0  0  0  0  0  0  0  0  0  0
   30.0806  -19.0232    0.0000 H   0  0  0  0  0  0  0  0  0  0  0  0
   27.5219  -22.9812    0.0000 H   0  0  0  0  0  0  0  0  0  0  0  0
   29.0402  -21.9184    0.0000 H   0  0  0  0  0  0  0  0  0  0  0  0
   28.5879  -22.8881    0.0000 H   0  0  0  0  0  0  0  0  0  0  0  0
   20.9435  -14.6655    0.0000 H   0  0  0  0  0  0  0  0  0  0  0  0
   19.3234  -15.5655    0.0000 H   0  0  0  0  0  0  0  0  0  0  0  0
   19.8737  -14.6479    0.0000 H   0  0  0  0  0  0  0  0  0  0  0  0
   19.0130  -16.0081    0.0000 H   0  0  0  0  0  0  0  0  0  0  0  0
   19.1551  -17.8559    0.0000 H   0  0  0  0  0  0  0  0  0  0  0  0
   18.5506  -16.9730    0.0000 H   0  0  0  0  0  0  0  0  0  0  0  0
  1  3  1  0  0  0  0
  1  4  1  0  0  0  0
  1 12  1  0  0  0  0
  2  4  1  0  0  0  0
  2  3  1  0  0  0  0
  2 11  1  0  0  0  0
  3  8  1  0  0  0  0
  4  5  1  0  0  0  0
  5  6  1  0  0  0  0
  5  7  2  0  0  0  0
  6 17  1  0  0  0  0
  6 18  1  0  0  0  0
  6 19  1  0  0  0  0
  8  9  1  0  0  0  0
  8 10  2  0  0  0  0
  9 20  1  0  0  0  0
  9 21  1  0  0  0  0
  9 22  1  0  0  0  0
 11 13  1  0  0  0  0
 11 14  1  0  0  0  0
 12 15  1  0  0  0  0
 12 16  1  0  0  0  0
 13 23  1  0  0  0  0
 13 24  1  0  0  0  0
 13 25  1  0  0  0  0
 14 26  1  0  0  0  0
 14 27  1  0  0  0  0
 14 28  1  0  0  0  0
 15 29  1  0  0  0  0
 15 30  1  0  0  0  0
 15 31  1  0  0  0  0
 16 32  1  0  0  0  0
 16 33  1  0  0  0  0
 16 34  1  0  0  0  0
M  END
> <NMREDATA_VERSION>
1.1

> <NMREDATA_LEVEL>
0

> <NMREDATA_FORMULA>
C8H18N4O2P2

> <NMREDATA_SMILES>
CC(=O)N1P(N(C)C)N(P1N(C)C)C(=O)C

> <NMREDATA_ASSIGNMENT>
P1, 154.00, 1
P2, 154.00, 2

> <NMREDATA_1D_31P>
154.00, L=P1
154.00, L=P2

$$$$
