
 OpenBabel08102311312D

 58 62  0  0  0  0  0  0  0  0999 V2000
    5.6280   -8.3878    0.0000 C   0  0  3  0  0  0  0  0  0  0  0  0
    5.6280   -7.0578    0.0000 C   0  0  3  0  0  0  0  0  0  0  0  0
    6.8929   -8.7988    0.0000 C   0  0  0  0  0  0  0  0  0  0  0  0
    6.8929   -6.6468    0.0000 C   0  0  0  0  0  0  0  0  0  0  0  0
    7.6747   -7.7227    0.0000 N   0  0  0  0  0  0  0  0  0  0  0  0
    9.0047   -7.7226    0.0000 H   0  0  0  0  0  0  0  0  0  0  0  0
    4.5520   -6.2761    0.0000 P   0  0  0  0  0  0  0  0  0  0  0  0
    4.5520   -9.1696    0.0000 P   0  0  0  0  0  0  0  0  0  0  0  0
    3.6775   -5.4290    0.0000 C   0  0  0  0  0  0  0  0  0  0  0  0
    3.5903   -6.8826    0.0000 C   0  0  0  0  0  0  0  0  0  0  0  0
    3.6339   -8.8085    0.0000 C   0  0  0  0  0  0  0  0  0  0  0  0
    3.5903   -9.8115    0.0000 C   0  0  0  0  0  0  0  0  0  0  0  0
    2.5033   -5.7638    0.0000 C   0  0  0  0  0  0  0  0  0  0  0  0
    1.6263   -4.9143    0.0000 C   0  0  0  0  0  0  0  0  0  0  0  0
    1.9235   -3.7300    0.0000 C   0  0  0  0  0  0  0  0  0  0  0  0
    3.0977   -3.3952    0.0000 C   0  0  0  0  0  0  0  0  0  0  0  0
    3.9747   -4.2448    0.0000 C   0  0  0  0  0  0  0  0  0  0  0  0
    3.6345   -8.0155    0.0000 C   0  0  0  0  0  0  0  0  0  0  0  0
    2.6755   -8.6203    0.0000 C   0  0  0  0  0  0  0  0  0  0  0  0
    1.6723   -8.0921    0.0000 C   0  0  0  0  0  0  0  0  0  0  0  0
    1.6280   -6.9592    0.0000 C   0  0  0  0  0  0  0  0  0  0  0  0
    2.5870   -6.3544    0.0000 C   0  0  0  0  0  0  0  0  0  0  0  0
    2.8607   -9.4242    0.0000 C   0  0  0  0  0  0  0  0  0  0  0  0
    1.9408   -9.0625    0.0000 C   0  0  0  0  0  0  0  0  0  0  0  0
    1.7942   -8.0850    0.0000 C   0  0  0  0  0  0  0  0  0  0  0  0
    2.5674   -7.4693    0.0000 C   0  0  0  0  0  0  0  0  0  0  0  0
    3.4872   -7.8310    0.0000 C   0  0  0  0  0  0  0  0  0  0  0  0
    3.6653  -10.9646    0.0000 C   0  0  0  0  0  0  0  0  0  0  0  0
    2.7041  -11.6061    0.0000 C   0  0  0  0  0  0  0  0  0  0  0  0
    1.6680  -11.0945    0.0000 C   0  0  0  0  0  0  0  0  0  0  0  0
    1.5930   -9.9414    0.0000 C   0  0  0  0  0  0  0  0  0  0  0  0
    2.5541   -9.2999    0.0000 C   0  0  0  0  0  0  0  0  0  0  0  0
    6.4937   -7.7589    0.0000 H   0  0  0  0  0  0  0  0  0  0  0  0
    6.4937   -7.6867    0.0000 H   0  0  0  0  0  0  0  0  0  0  0  0
    7.2236   -9.8164    0.0000 H   0  0  0  0  0  0  0  0  0  0  0  0
    7.9497   -8.9662    0.0000 H   0  0  0  0  0  0  0  0  0  0  0  0
    7.2235   -5.6292    0.0000 H   0  0  0  0  0  0  0  0  0  0  0  0
    7.9497   -6.4794    0.0000 H   0  0  0  0  0  0  0  0  0  0  0  0
    2.2521   -6.7648    0.0000 H   0  0  0  0  0  0  0  0  0  0  0  0
    0.6338   -5.1972    0.0000 H   0  0  0  0  0  0  0  0  0  0  0  0
    1.1822   -3.0120    0.0000 H   0  0  0  0  0  0  0  0  0  0  0  0
    3.3489   -2.3942    0.0000 H   0  0  0  0  0  0  0  0  0  0  0  0
    4.9672   -3.9619    0.0000 H   0  0  0  0  0  0  0  0  0  0  0  0
    4.5477   -8.4962    0.0000 H   0  0  0  0  0  0  0  0  0  0  0  0
    2.7157   -9.6515    0.0000 H   0  0  0  0  0  0  0  0  0  0  0  0
    0.7994   -8.6426    0.0000 H   0  0  0  0  0  0  0  0  0  0  0  0
    0.7148   -6.4785    0.0000 H   0  0  0  0  0  0  0  0  0  0  0  0
    2.5467   -5.3232    0.0000 H   0  0  0  0  0  0  0  0  0  0  0  0
    3.0138  -10.4448    0.0000 H   0  0  0  0  0  0  0  0  0  0  0  0
    1.1335   -9.7054    0.0000 H   0  0  0  0  0  0  0  0  0  0  0  0
    0.8338   -7.7073    0.0000 H   0  0  0  0  0  0  0  0  0  0  0  0
    2.4143   -6.4487    0.0000 H   0  0  0  0  0  0  0  0  0  0  0  0
    4.2945   -7.1881    0.0000 H   0  0  0  0  0  0  0  0  0  0  0  0
    4.5906  -11.4215    0.0000 H   0  0  0  0  0  0  0  0  0  0  0  0
    2.7711  -12.6359    0.0000 H   0  0  0  0  0  0  0  0  0  0  0  0
    0.8096  -11.6674    0.0000 H   0  0  0  0  0  0  0  0  0  0  0  0
    0.6677   -9.4845    0.0000 H   0  0  0  0  0  0  0  0  0  0  0  0
    2.4871   -8.2701    0.0000 H   0  0  0  0  0  0  0  0  0  0  0  0
  1  2  1  0  0  0  0
  1  3  1  0  0  0  0
  1  8  1  0  0  0  0
  1 33  1  0  0  0  0
  2  4  1  0  0  0  0
  2  7  1  0  0  0  0
  2 34  1  0  0  0  0
  3  5  1  0  0  0  0
  3 35  1  0  0  0  0
  3 36  1  0  0  0  0
  4  5  1  0  0  0  0
  4 37  1  0  0  0  0
  4 38  1  0  0  0  0
  5  6  1  0  0  0  0
  7  9  1  0  0  0  0
  7 10  1  0  0  0  0
  8 11  1  0  0  0  0
  8 12  1  0  0  0  0
  9 13  2  0  0  0  0
  9 17  1  0  0  0  0
 10 18  2  0  0  0  0
 10 22  1  0  0  0  0
 11 23  2  0  0  0  0
 11 27  1  0  0  0  0
 12 28  2  0  0  0  0
 12 32  1  0  0  0  0
 13 14  1  0  0  0  0
 13 39  1  0  0  0  0
 14 15  2  0  0  0  0
 14 40  1  0  0  0  0
 15 16  1  0  0  0  0
 15 41  1  0  0  0  0
 16 17  2  0  0  0  0
 16 42  1  0  0  0  0
 17 43  1  0  0  0  0
 18 19  1  0  0  0  0
 18 44  1  0  0  0  0
 19 20  2  0  0  0  0
 19 45  1  0  0  0  0
 20 21  1  0  0  0  0
 20 46  1  0  0  0  0
 21 22  2  0  0  0  0
 21 47  1  0  0  0  0
 22 48  1  0  0  0  0
 23 24  1  0  0  0  0
 23 49  1  0  0  0  0
 24 25  2  0  0  0  0
 24 50  1  0  0  0  0
 25 26  1  0  0  0  0
 25 51  1  0  0  0  0
 26 27  2  0  0  0  0
 26 52  1  0  0  0  0
 27 53  1  0  0  0  0
 28 29  1  0  0  0  0
 28 54  1  0  0  0  0
 29 30  2  0  0  0  0
 29 55  1  0  0  0  0
 30 31  1  0  0  0  0
 30 56  1  0  0  0  0
 31 32  2  0  0  0  0
 31 57  1  0  0  0  0
 32 58  1  0  0  0  0
M  END
> <NMREDATA_VERSION>
1.1

> <NMREDATA_LEVEL>
0

> <NMREDATA_FORMULA>
C28H27NP2

> <NMREDATA_SMILES>
N1CC(C(C1)P(c1ccccc1)c1ccccc1)P(c1ccccc1)c1ccccc1

> <NMREDATA_ASSIGNMENT>
P7, -8.30, 7
P8, -8.30, 8

> <NMREDATA_1D_31P>
-8.30, L=P7
-8.30, L=P8

$$$$
