
 OpenBabel08102311302D

 46 46  0  0  0  0  0  0  0  0999 V2000
   19.8392  -24.3390    0.0000 P   0  0  0  0  0  0  0  0  0  0  0  0
   20.6815  -22.0558    0.0000 O   0  0  0  0  0  0  0  0  0  0  0  0
   21.8342  -26.3118    0.0000 O   0  0  0  0  0  0  0  0  0  0  0  0
   23.0799  -21.6437    0.0000 C   0  0  0  0  0  0  0  0  0  0  0  0
   21.2174  -28.6660    0.0000 C   0  0  0  0  0  0  0  0  0  0  0  0
   16.7358  -23.0090    0.0000 O   0  0  0  0  0  0  0  0  0  0  0  0
   16.4476  -20.5925    0.0000 C   0  0  0  0  0  0  0  0  0  0  0  0
   14.2108  -19.6339    0.0000 C   0  0  0  0  0  0  0  0  0  0  0  0
   18.3963  -19.1346    0.0000 C   0  0  0  0  0  0  0  0  0  0  0  0
   13.9227  -17.2172    0.0000 C   0  0  0  0  0  0  0  0  0  0  0  0
   18.1081  -16.7182    0.0000 C   0  0  0  0  0  0  0  0  0  0  0  0
   15.8713  -15.7595    0.0000 C   0  0  0  0  0  0  0  0  0  0  0  0
   12.5685  -21.2357    0.0000 O   0  0  0  0  0  0  0  0  0  0  0  0
   13.1227  -23.3193    0.0000 P   0  0  0  0  0  0  0  0  0  0  0  0
   11.5932  -24.6050    0.0000 O   0  0  0  0  0  0  0  0  0  0  0  0
   15.1398  -25.2700    0.0000 O   0  0  0  0  0  0  0  0  0  0  0  0
   15.6940  -27.0877    0.0000 C   0  0  0  0  0  0  0  0  0  0  0  0
   14.0297  -28.8696    0.0000 C   0  0  0  0  0  0  0  0  0  0  0  0
    9.7533  -24.2725    0.0000 C   0  0  0  0  0  0  0  0  0  0  0  0
    8.9291  -21.9777    0.0000 C   0  0  0  0  0  0  0  0  0  0  0  0
   24.6391  -23.5184    0.0000 C   0  0  0  0  0  0  0  0  0  0  0  0
   18.8658  -29.3102    0.0000 C   0  0  0  0  0  0  0  0  0  0  0  0
   23.4502  -20.6398    0.0000 H   0  0  0  0  0  0  0  0  0  0  0  0
   24.1344  -21.4625    0.0000 H   0  0  0  0  0  0  0  0  0  0  0  0
   21.9782  -29.4184    0.0000 H   0  0  0  0  0  0  0  0  0  0  0  0
   20.9462  -29.7011    0.0000 H   0  0  0  0  0  0  0  0  0  0  0  0
   19.3449  -19.5411    0.0000 H   0  0  0  0  0  0  0  0  0  0  0  0
   12.9742  -16.8106    0.0000 H   0  0  0  0  0  0  0  0  0  0  0  0
   18.9344  -16.1000    0.0000 H   0  0  0  0  0  0  0  0  0  0  0  0
   15.7491  -14.7348    0.0000 H   0  0  0  0  0  0  0  0  0  0  0  0
   16.7364  -27.3292    0.0000 H   0  0  0  0  0  0  0  0  0  0  0  0
   16.0060  -28.1112    0.0000 H   0  0  0  0  0  0  0  0  0  0  0  0
   12.9873  -28.6281    0.0000 H   0  0  0  0  0  0  0  0  0  0  0  0
   14.3417  -29.8931    0.0000 H   0  0  0  0  0  0  0  0  0  0  0  0
   13.2993  -29.6516    0.0000 H   0  0  0  0  0  0  0  0  0  0  0  0
    9.0620  -25.0892    0.0000 H   0  0  0  0  0  0  0  0  0  0  0  0
    8.7004  -24.0822    0.0000 H   0  0  0  0  0  0  0  0  0  0  0  0
    9.6204  -21.1610    0.0000 H   0  0  0  0  0  0  0  0  0  0  0  0
    7.8762  -21.7874    0.0000 H   0  0  0  0  0  0  0  0  0  0  0  0
    8.5674  -20.9707    0.0000 H   0  0  0  0  0  0  0  0  0  0  0  0
   24.2688  -24.5223    0.0000 H   0  0  0  0  0  0  0  0  0  0  0  0
   25.6936  -23.3372    0.0000 H   0  0  0  0  0  0  0  0  0  0  0  0
   25.3233  -24.3411    0.0000 H   0  0  0  0  0  0  0  0  0  0  0  0
   18.1050  -28.5578    0.0000 H   0  0  0  0  0  0  0  0  0  0  0  0
   18.5946  -30.3453    0.0000 H   0  0  0  0  0  0  0  0  0  0  0  0
   17.8338  -29.5929    0.0000 H   0  0  0  0  0  0  0  0  0  0  0  0
  1  2  1  0  0  0  0
  1  3  1  0  0  0  0
  1  6  1  0  0  0  0
  2  4  1  0  0  0  0
  3  5  1  0  0  0  0
  4 21  1  0  0  0  0
  4 23  1  0  0  0  0
  4 24  1  0  0  0  0
  5 22  1  0  0  0  0
  5 25  1  0  0  0  0
  5 26  1  0  0  0  0
  6  7  1  0  0  0  0
  7  8  1  0  0  0  0
  7  9  2  0  0  0  0
  8 10  2  0  0  0  0
  8 13  1  0  0  0  0
  9 11  1  0  0  0  0
  9 27  1  0  0  0  0
 10 12  1  0  0  0  0
 10 28  1  0  0  0  0
 11 12  2  0  0  0  0
 11 29  1  0  0  0  0
 12 30  1  0  0  0  0
 13 14  1  0  0  0  0
 14 15  1  0  0  0  0
 14 16  1  0  0  0  0
 15 19  1  0  0  0  0
 16 17  1  0  0  0  0
 17 18  1  0  0  0  0
 17 31  1  0  0  0  0
 17 32  1  0  0  0  0
 18 33  1  0  0  0  0
 18 34  1  0  0  0  0
 18 35  1  0  0  0  0
 19 20  1  0  0  0  0
 19 36  1  0  0  0  0
 19 37  1  0  0  0  0
 20 38  1  0  0  0  0
 20 39  1  0  0  0  0
 20 40  1  0  0  0  0
 21 41  1  0  0  0  0
 21 42  1  0  0  0  0
 21 43  1  0  0  0  0
 22 44  1  0  0  0  0
 22 45  1  0  0  0  0
 22 46  1  0  0  0  0
M  END
> <NMREDATA_VERSION>
1.1

> <NMREDATA_LEVEL>
0

> <NMREDATA_FORMULA>
C14H24O6P2

> <NMREDATA_SMILES>
CCOP(Oc1ccccc1OP(OCC)OCC)OCC

> <NMREDATA_ASSIGNMENT>
P1, 132.00, 1
P14, 132.00, 14

> <NMREDATA_1D_31P>
132.00, L=P1
132.00, L=P14

$$$$
