
 OpenBabel08102311312D

 76 79  0  0  0  0  0  0  0  0999 V2000
    8.0603   -6.5722    0.0000 P   0  0  0  0  0  0  0  0  0  0  0  0
    9.2876   -7.2808    0.0000 C   0  0  0  0  0  0  0  0  0  0  0  0
   10.5150   -6.5722    0.0000 C   0  0  0  0  0  0  0  0  0  0  0  0
   11.7423   -7.2808    0.0000 P   0  0  0  0  0  0  0  0  0  0  0  0
    8.0603   -5.1550    0.0000 C   0  0  0  0  0  0  0  0  0  0  0  0
    6.8329   -4.4464    0.0000 C   0  0  0  0  0  0  0  0  0  0  0  0
    9.2876   -4.4464    0.0000 C   0  0  0  0  0  0  0  0  0  0  0  0
    6.8329   -3.0292    0.0000 C   0  0  0  0  0  0  0  0  0  0  0  0
    9.2876   -3.0292    0.0000 C   0  0  0  0  0  0  0  0  0  0  0  0
    8.0603   -2.3205    0.0000 C   0  0  0  0  0  0  0  0  0  0  0  0
    6.8329   -7.2808    0.0000 C   0  0  0  0  0  0  0  0  0  0  0  0
    6.8329   -8.6980    0.0000 C   0  0  0  0  0  0  0  0  0  0  0  0
    5.6056   -6.5722    0.0000 C   0  0  0  0  0  0  0  0  0  0  0  0
    5.6056   -9.4066    0.0000 C   0  0  0  0  0  0  0  0  0  0  0  0
    4.3783   -7.2808    0.0000 C   0  0  0  0  0  0  0  0  0  0  0  0
    4.3783   -8.6980    0.0000 C   0  0  0  0  0  0  0  0  0  0  0  0
   11.7423   -8.6980    0.0000 C   0  0  0  0  0  0  0  0  0  0  0  0
   12.9697   -9.4066    0.0000 C   0  0  0  0  0  0  0  0  0  0  0  0
   10.5150   -9.4066    0.0000 C   0  0  0  0  0  0  0  0  0  0  0  0
   12.9697  -10.8238    0.0000 C   0  0  0  0  0  0  0  0  0  0  0  0
   10.5150  -10.8238    0.0000 C   0  0  0  0  0  0  0  0  0  0  0  0
   11.7423  -11.5324    0.0000 C   0  0  0  0  0  0  0  0  0  0  0  0
   12.9697   -6.5722    0.0000 C   0  0  0  0  0  0  0  0  0  0  0  0
   12.9697   -5.1550    0.0000 C   0  0  0  0  0  0  0  0  0  0  0  0
   14.1970   -7.2808    0.0000 C   0  0  0  0  0  0  0  0  0  0  0  0
   14.1970   -4.4464    0.0000 C   0  0  0  0  0  0  0  0  0  0  0  0
   15.4243   -6.5722    0.0000 C   0  0  0  0  0  0  0  0  0  0  0  0
   15.4243   -5.1550    0.0000 C   0  0  0  0  0  0  0  0  0  0  0  0
    9.2876   -8.3508    0.0000 H   0  0  0  0  0  0  0  0  0  0  0  0
   10.2142   -7.8158    0.0000 H   0  0  0  0  0  0  0  0  0  0  0  0
   10.5150   -5.5022    0.0000 H   0  0  0  0  0  0  0  0  0  0  0  0
   11.4417   -6.0372    0.0000 H   0  0  0  0  0  0  0  0  0  0  0  0
    8.9870   -5.6900    0.0000 H   0  0  0  0  0  0  0  0  0  0  0  0
    5.9063   -4.9814    0.0000 H   0  0  0  0  0  0  0  0  0  0  0  0
    5.9062   -3.9114    0.0000 H   0  0  0  0  0  0  0  0  0  0  0  0
   10.2143   -4.9814    0.0000 H   0  0  0  0  0  0  0  0  0  0  0  0
   10.2142   -3.9114    0.0000 H   0  0  0  0  0  0  0  0  0  0  0  0
    5.9062   -2.4942    0.0000 H   0  0  0  0  0  0  0  0  0  0  0  0
    6.8329   -1.9592    0.0000 H   0  0  0  0  0  0  0  0  0  0  0  0
   10.2143   -2.4942    0.0000 H   0  0  0  0  0  0  0  0  0  0  0  0
    9.2877   -1.9592    0.0000 H   0  0  0  0  0  0  0  0  0  0  0  0
    8.0603   -1.2505    0.0000 H   0  0  0  0  0  0  0  0  0  0  0  0
    8.9870   -1.7855    0.0000 H   0  0  0  0  0  0  0  0  0  0  0  0
    6.8329   -6.2108    0.0000 H   0  0  0  0  0  0  0  0  0  0  0  0
    7.7596   -9.2330    0.0000 H   0  0  0  0  0  0  0  0  0  0  0  0
    6.8329   -9.7680    0.0000 H   0  0  0  0  0  0  0  0  0  0  0  0
    5.6056   -5.5022    0.0000 H   0  0  0  0  0  0  0  0  0  0  0  0
    4.6789   -6.0372    0.0000 H   0  0  0  0  0  0  0  0  0  0  0  0
    5.6056  -10.4766    0.0000 H   0  0  0  0  0  0  0  0  0  0  0  0
    4.6789   -9.9416    0.0000 H   0  0  0  0  0  0  0  0  0  0  0  0
    3.4516   -6.7458    0.0000 H   0  0  0  0  0  0  0  0  0  0  0  0
    3.4517   -7.8158    0.0000 H   0  0  0  0  0  0  0  0  0  0  0  0
    3.4516   -9.2330    0.0000 H   0  0  0  0  0  0  0  0  0  0  0  0
    3.4517   -8.1630    0.0000 H   0  0  0  0  0  0  0  0  0  0  0  0
   10.8156   -8.1630    0.0000 H   0  0  0  0  0  0  0  0  0  0  0  0
   13.8963   -8.8716    0.0000 H   0  0  0  0  0  0  0  0  0  0  0  0
   13.8964   -9.9416    0.0000 H   0  0  0  0  0  0  0  0  0  0  0  0
    9.5883   -8.8716    0.0000 H   0  0  0  0  0  0  0  0  0  0  0  0
    9.5884   -9.9416    0.0000 H   0  0  0  0  0  0  0  0  0  0  0  0
   13.8963  -11.3588    0.0000 H   0  0  0  0  0  0  0  0  0  0  0  0
   12.9697  -11.8938    0.0000 H   0  0  0  0  0  0  0  0  0  0  0  0
    9.5883  -11.3588    0.0000 H   0  0  0  0  0  0  0  0  0  0  0  0
   10.5150  -11.8938    0.0000 H   0  0  0  0  0  0  0  0  0  0  0  0
   11.7423  -12.6024    0.0000 H   0  0  0  0  0  0  0  0  0  0  0  0
   10.8156  -12.0674    0.0000 H   0  0  0  0  0  0  0  0  0  0  0  0
   12.9697   -7.6422    0.0000 H   0  0  0  0  0  0  0  0  0  0  0  0
   12.0430   -4.6200    0.0000 H   0  0  0  0  0  0  0  0  0  0  0  0
   12.9697   -4.0850    0.0000 H   0  0  0  0  0  0  0  0  0  0  0  0
   14.1970   -8.3508    0.0000 H   0  0  0  0  0  0  0  0  0  0  0  0
   15.1237   -7.8158    0.0000 H   0  0  0  0  0  0  0  0  0  0  0  0
   14.1970   -3.3764    0.0000 H   0  0  0  0  0  0  0  0  0  0  0  0
   15.1237   -3.9114    0.0000 H   0  0  0  0  0  0  0  0  0  0  0  0
   16.3510   -7.1072    0.0000 H   0  0  0  0  0  0  0  0  0  0  0  0
   16.3509   -6.0372    0.0000 H   0  0  0  0  0  0  0  0  0  0  0  0
   16.3510   -4.6200    0.0000 H   0  0  0  0  0  0  0  0  0  0  0  0
   16.3509   -5.6900    0.0000 H   0  0  0  0  0  0  0  0  0  0  0  0
  1  2  1  0  0  0  0
  1  5  1  0  0  0  0
  1 11  1  0  0  0  0
  2  3  1  0  0  0  0
  2 29  1  0  0  0  0
  2 30  1  0  0  0  0
  3  4  1  0  0  0  0
  3 31  1  0  0  0  0
  3 32  1  0  0  0  0
  4 17  1  0  0  0  0
  4 23  1  0  0  0  0
  5  6  1  0  0  0  0
  5  7  1  0  0  0  0
  5 33  1  0  0  0  0
  6  8  1  0  0  0  0
  6 34  1  0  0  0  0
  6 35  1  0  0  0  0
  7  9  1  0  0  0  0
  7 36  1  0  0  0  0
  7 37  1  0  0  0  0
  8 10  1  0  0  0  0
  8 38  1  0  0  0  0
  8 39  1  0  0  0  0
  9 10  1  0  0  0  0
  9 40  1  0  0  0  0
  9 41  1  0  0  0  0
 10 42  1  0  0  0  0
 10 43  1  0  0  0  0
 11 12  1  0  0  0  0
 11 13  1  0  0  0  0
 11 44  1  0  0  0  0
 12 14  1  0  0  0  0
 12 45  1  0  0  0  0
 12 46  1  0  0  0  0
 13 15  1  0  0  0  0
 13 47  1  0  0  0  0
 13 48  1  0  0  0  0
 14 16  1  0  0  0  0
 14 49  1  0  0  0  0
 14 50  1  0  0  0  0
 15 16  1  0  0  0  0
 15 51  1  0  0  0  0
 15 52  1  0  0  0  0
 16 53  1  0  0  0  0
 16 54  1  0  0  0  0
 17 18  1  0  0  0  0
 17 19  1  0  0  0  0
 17 55  1  0  0  0  0
 18 20  1  0  0  0  0
 18 56  1  0  0  0  0
 18 57  1  0  0  0  0
 19 21  1  0  0  0  0
 19 58  1  0  0  0  0
 19 59  1  0  0  0  0
 20 22  1  0  0  0  0
 20 60  1  0  0  0  0
 20 61  1  0  0  0  0
 21 22  1  0  0  0  0
 21 62  1  0  0  0  0
 21 63  1  0  0  0  0
 22 64  1  0  0  0  0
 22 65  1  0  0  0  0
 23 24  1  0  0  0  0
 23 25  1  0  0  0  0
 23 66  1  0  0  0  0
 24 26  1  0  0  0  0
 24 67  1  0  0  0  0
 24 68  1  0  0  0  0
 25 27  1  0  0  0  0
 25 69  1  0  0  0  0
 25 70  1  0  0  0  0
 26 28  1  0  0  0  0
 26 71  1  0  0  0  0
 26 72  1  0  0  0  0
 27 28  1  0  0  0  0
 27 73  1  0  0  0  0
 27 74  1  0  0  0  0
 28 75  1  0  0  0  0
 28 76  1  0  0  0  0
M  END
> <NMREDATA_VERSION>
1.1

> <NMREDATA_LEVEL>
0

> <NMREDATA_FORMULA>
C26H48P2

> <NMREDATA_SMILES>
C1CCC(CC1)P(C1CCCCC1)CCP(C1CCCCC1)C1CCCCC1

> <NMREDATA_ASSIGNMENT>
P1, -0.60, 1
P4, -0.60, 4

> <NMREDATA_1D_31P>
-0.60, L=P1
-0.60, L=P4

$$$$
