
 OpenBabel08102311312D

 50 53  0  0  0  0  0  0  0  0999 V2000
    5.6161   -6.7511    0.0000 C   0  0  0  0  0  0  0  0  0  0  0  0
    6.8982   -7.1820    0.0000 P   0  0  3  0  0  0  0  0  0  0  0  0
    5.6161   -5.4030    0.0000 C   0  0  0  0  0  0  0  0  0  0  0  0
    7.6647   -6.0952    0.0000 C   0  0  0  0  0  0  0  0  0  0  0  0
    6.8849   -5.0179    0.0000 C   0  0  0  0  0  0  0  0  0  0  0  0
    8.9472   -6.0943    0.0000 C   0  0  0  0  0  0  0  0  0  0  0  0
    9.7178   -7.1772    0.0000 P   0  0  3  0  0  0  0  0  0  0  0  0
    9.7343   -5.0204    0.0000 C   0  0  0  0  0  0  0  0  0  0  0  0
   11.0018   -6.7438    0.0000 C   0  0  0  0  0  0  0  0  0  0  0  0
   11.0103   -5.3994    0.0000 C   0  0  0  0  0  0  0  0  0  0  0  0
    7.1819   -8.4351    0.0000 C   0  0  0  0  0  0  0  0  0  0  0  0
    9.4345   -8.4290    0.0000 C   0  0  0  0  0  0  0  0  0  0  0  0
    4.5631   -4.6630    0.0000 C   0  0  0  0  0  0  0  0  0  0  0  0
    7.2056   -3.7665    0.0000 C   0  0  0  0  0  0  0  0  0  0  0  0
    9.4095   -3.7709    0.0000 C   0  0  0  0  0  0  0  0  0  0  0  0
   12.0545   -4.6461    0.0000 C   0  0  0  0  0  0  0  0  0  0  0  0
    8.4104   -8.8164    0.0000 C   0  0  0  0  0  0  0  0  0  0  0  0
    8.6945  -10.0710    0.0000 C   0  0  0  0  0  0  0  0  0  0  0  0
    7.7500  -10.9444    0.0000 C   0  0  0  0  0  0  0  0  0  0  0  0
    6.5214  -10.5630    0.0000 C   0  0  0  0  0  0  0  0  0  0  0  0
    6.2373   -9.3084    0.0000 C   0  0  0  0  0  0  0  0  0  0  0  0
   10.3791   -9.3023    0.0000 C   0  0  0  0  0  0  0  0  0  0  0  0
   10.0952  -10.5569    0.0000 C   0  0  0  0  0  0  0  0  0  0  0  0
    8.8666  -10.9384    0.0000 C   0  0  0  0  0  0  0  0  0  0  0  0
    7.9220  -10.0652    0.0000 C   0  0  0  0  0  0  0  0  0  0  0  0
    8.2059   -8.8105    0.0000 C   0  0  0  0  0  0  0  0  0  0  0  0
    4.7782   -7.3535    0.0000 H   0  0  0  0  0  0  0  0  0  0  0  0
   11.8382   -7.3483    0.0000 H   0  0  0  0  0  0  0  0  0  0  0  0
    4.6582   -3.5972    0.0000 H   0  0  0  0  0  0  0  0  0  0  0  0
    3.5926   -5.1135    0.0000 H   0  0  0  0  0  0  0  0  0  0  0  0
    3.6877   -4.0478    0.0000 H   0  0  0  0  0  0  0  0  0  0  0  0
    8.2361   -3.4783    0.0000 H   0  0  0  0  0  0  0  0  0  0  0  0
    6.4408   -3.0182    0.0000 H   0  0  0  0  0  0  0  0  0  0  0  0
    7.4712   -2.7300    0.0000 H   0  0  0  0  0  0  0  0  0  0  0  0
   10.1717   -3.0200    0.0000 H   0  0  0  0  0  0  0  0  0  0  0  0
    8.3781   -3.4862    0.0000 H   0  0  0  0  0  0  0  0  0  0  0  0
    9.1403   -2.7353    0.0000 H   0  0  0  0  0  0  0  0  0  0  0  0
   13.0305   -5.0846    0.0000 H   0  0  0  0  0  0  0  0  0  0  0  0
   11.9462   -3.5816    0.0000 H   0  0  0  0  0  0  0  0  0  0  0  0
   12.9223   -4.0201    0.0000 H   0  0  0  0  0  0  0  0  0  0  0  0
    9.1681   -8.1158    0.0000 H   0  0  0  0  0  0  0  0  0  0  0  0
    9.6801  -10.3769    0.0000 H   0  0  0  0  0  0  0  0  0  0  0  0
    7.9779  -11.9509    0.0000 H   0  0  0  0  0  0  0  0  0  0  0  0
    5.7637  -11.2636    0.0000 H   0  0  0  0  0  0  0  0  0  0  0  0
    5.2517   -9.0025    0.0000 H   0  0  0  0  0  0  0  0  0  0  0  0
   11.3647   -8.9963    0.0000 H   0  0  0  0  0  0  0  0  0  0  0  0
   10.8530  -11.2574    0.0000 H   0  0  0  0  0  0  0  0  0  0  0  0
    8.6388  -11.9450    0.0000 H   0  0  0  0  0  0  0  0  0  0  0  0
    6.9364  -10.3712    0.0000 H   0  0  0  0  0  0  0  0  0  0  0  0
    7.4481   -8.1100    0.0000 H   0  0  0  0  0  0  0  0  0  0  0  0
  1  2  1  0  0  0  0
  1  3  2  0  0  0  0
  1 27  1  0  0  0  0
  2  4  1  0  0  0  0
  2 11  1  0  0  0  0
  3  5  1  0  0  0  0
  3 13  1  0  0  0  0
  4  5  2  0  0  0  0
  4  6  1  0  0  0  0
  5 14  1  0  0  0  0
  6  7  1  0  0  0  0
  6  8  2  0  0  0  0
  7  9  1  0  0  0  0
  7 12  1  0  0  0  0
  8 10  1  0  0  0  0
  8 15  1  0  0  0  0
  9 10  2  0  0  0  0
  9 28  1  0  0  0  0
 10 16  1  0  0  0  0
 11 17  2  0  0  0  0
 11 21  1  0  0  0  0
 12 22  2  0  0  0  0
 12 26  1  0  0  0  0
 13 29  1  0  0  0  0
 13 30  1  0  0  0  0
 13 31  1  0  0  0  0
 14 32  1  0  0  0  0
 14 33  1  0  0  0  0
 14 34  1  0  0  0  0
 15 35  1  0  0  0  0
 15 36  1  0  0  0  0
 15 37  1  0  0  0  0
 16 38  1  0  0  0  0
 16 39  1  0  0  0  0
 16 40  1  0  0  0  0
 17 18  1  0  0  0  0
 17 41  1  0  0  0  0
 18 19  2  0  0  0  0
 18 42  1  0  0  0  0
 19 20  1  0  0  0  0
 19 43  1  0  0  0  0
 20 21  2  0  0  0  0
 20 44  1  0  0  0  0
 21 45  1  0  0  0  0
 22 23  1  0  0  0  0
 22 46  1  0  0  0  0
 23 24  2  0  0  0  0
 23 47  1  0  0  0  0
 24 25  1  0  0  0  0
 24 48  1  0  0  0  0
 25 26  2  0  0  0  0
 25 49  1  0  0  0  0
 26 50  1  0  0  0  0
M  END
> <NMREDATA_VERSION>
1.1

> <NMREDATA_LEVEL>
0

> <NMREDATA_FORMULA>
C24H24P2

> <NMREDATA_SMILES>
Cc1cp(c(c1C)c1c(C)c(cp1c1ccccc1)C)c1ccccc1

> <NMREDATA_ASSIGNMENT>
P2, 12.50, 2
P7, 12.50, 7

> <NMREDATA_1D_31P>
12.50, L=P2
12.50, L=P7

$$$$
