
 OpenBabel08102311302D

 82 83  0  0  0  0  0  0  0  0999 V2000
   17.0018  -19.1077    0.0000 N   0  0  0  0  0  0  0  0  0  0  0  0
   18.9968  -18.9968    0.0000 C   0  0  0  0  0  0  0  0  0  0  0  0
   19.6618  -17.8450    0.0000 C   0  0  0  0  0  0  0  0  0  0  0  0
   19.6619  -20.1487    0.0000 C   0  0  0  0  0  0  0  0  0  0  0  0
   20.9919  -17.8451    0.0000 C   0  0  0  0  0  0  0  0  0  0  0  0
   20.9919  -20.1487    0.0000 C   0  0  0  0  0  0  0  0  0  0  0  0
   21.6569  -18.9969    0.0000 C   0  0  0  0  0  0  0  0  0  0  0  0
   15.0290  -17.0018    0.0000 P   0  0  0  0  0  0  0  0  0  0  0  0
   15.6275  -15.0290    0.0000 O   0  0  0  0  0  0  0  0  0  0  0  0
   12.9675  -17.6890    0.0000 O   0  0  0  0  0  0  0  0  0  0  0  0
   14.2975  -25.3365    0.0000 N   0  0  0  0  0  0  0  0  0  0  0  0
   15.6275  -25.3365    0.0000 C   0  0  0  0  0  0  0  0  0  0  0  0
   16.2925  -24.1847    0.0000 C   0  0  0  0  0  0  0  0  0  0  0  0
   16.2926  -26.4883    0.0000 C   0  0  0  0  0  0  0  0  0  0  0  0
   17.6226  -24.1847    0.0000 C   0  0  0  0  0  0  0  0  0  0  0  0
   17.6225  -26.4883    0.0000 C   0  0  0  0  0  0  0  0  0  0  0  0
   18.2875  -25.3365    0.0000 C   0  0  0  0  0  0  0  0  0  0  0  0
   11.6597  -23.3415    0.0000 P   0  0  0  0  0  0  0  0  0  0  0  0
   12.2582  -21.3687    0.0000 O   0  0  0  0  0  0  0  0  0  0  0  0
    9.5982  -24.0287    0.0000 O   0  0  0  0  0  0  0  0  0  0  0  0
   16.9228  -14.7270    0.0000 C   0  0  0  0  0  0  0  0  0  0  0  0
   17.2247  -16.0223    0.0000 C   0  0  0  0  0  0  0  0  0  0  0  0
   16.6208  -13.4318    0.0000 C   0  0  0  0  0  0  0  0  0  0  0  0
   18.2180  -14.4250    0.0000 C   0  0  0  0  0  0  0  0  0  0  0  0
   11.9724  -16.8066    0.0000 C   0  0  0  0  0  0  0  0  0  0  0  0
   12.8548  -15.8115    0.0000 C   0  0  0  0  0  0  0  0  0  0  0  0
   11.0900  -17.8017    0.0000 C   0  0  0  0  0  0  0  0  0  0  0  0
   10.9773  -15.9242    0.0000 C   0  0  0  0  0  0  0  0  0  0  0  0
   13.5534  -21.0667    0.0000 C   0  0  0  0  0  0  0  0  0  0  0  0
   13.8554  -22.3619    0.0000 C   0  0  0  0  0  0  0  0  0  0  0  0
   13.2514  -19.7714    0.0000 C   0  0  0  0  0  0  0  0  0  0  0  0
   14.8487  -20.7647    0.0000 C   0  0  0  0  0  0  0  0  0  0  0  0
    8.6031  -23.1462    0.0000 C   0  0  0  0  0  0  0  0  0  0  0  0
    9.4855  -22.1511    0.0000 C   0  0  0  0  0  0  0  0  0  0  0  0
    7.7206  -24.1413    0.0000 C   0  0  0  0  0  0  0  0  0  0  0  0
    7.6079  -22.2638    0.0000 C   0  0  0  0  0  0  0  0  0  0  0  0
   19.1458  -16.9512    0.0000 H   0  0  0  0  0  0  0  0  0  0  0  0
   19.1459  -21.0424    0.0000 H   0  0  0  0  0  0  0  0  0  0  0  0
   21.5079  -16.9514    0.0000 H   0  0  0  0  0  0  0  0  0  0  0  0
   21.5079  -21.0424    0.0000 H   0  0  0  0  0  0  0  0  0  0  0  0
   22.6889  -18.9969    0.0000 H   0  0  0  0  0  0  0  0  0  0  0  0
   15.7765  -23.2910    0.0000 H   0  0  0  0  0  0  0  0  0  0  0  0
   15.7766  -27.3821    0.0000 H   0  0  0  0  0  0  0  0  0  0  0  0
   18.1386  -23.2910    0.0000 H   0  0  0  0  0  0  0  0  0  0  0  0
   18.1385  -27.3820    0.0000 H   0  0  0  0  0  0  0  0  0  0  0  0
   19.3195  -25.3365    0.0000 H   0  0  0  0  0  0  0  0  0  0  0  0
   16.4437  -16.7537    0.0000 H   0  0  0  0  0  0  0  0  0  0  0  0
   18.2486  -16.3330    0.0000 H   0  0  0  0  0  0  0  0  0  0  0  0
   17.4676  -17.0644    0.0000 H   0  0  0  0  0  0  0  0  0  0  0  0
   17.4018  -12.7004    0.0000 H   0  0  0  0  0  0  0  0  0  0  0  0
   15.5969  -13.1212    0.0000 H   0  0  0  0  0  0  0  0  0  0  0  0
   16.3778  -12.3898    0.0000 H   0  0  0  0  0  0  0  0  0  0  0  0
   18.9494  -15.2060    0.0000 H   0  0  0  0  0  0  0  0  0  0  0  0
   18.5286  -13.4011    0.0000 H   0  0  0  0  0  0  0  0  0  0  0  0
   19.2600  -14.1820    0.0000 H   0  0  0  0  0  0  0  0  0  0  0  0
   13.9031  -16.0260    0.0000 H   0  0  0  0  0  0  0  0  0  0  0  0
   12.5164  -14.7964    0.0000 H   0  0  0  0  0  0  0  0  0  0  0  0
   13.5647  -15.0109    0.0000 H   0  0  0  0  0  0  0  0  0  0  0  0
   10.0417  -17.5872    0.0000 H   0  0  0  0  0  0  0  0  0  0  0  0
   11.4284  -18.8168    0.0000 H   0  0  0  0  0  0  0  0  0  0  0  0
   10.3801  -18.6023    0.0000 H   0  0  0  0  0  0  0  0  0  0  0  0
   11.1918  -14.8759    0.0000 H   0  0  0  0  0  0  0  0  0  0  0  0
    9.9622  -16.2626    0.0000 H   0  0  0  0  0  0  0  0  0  0  0  0
   10.1767  -15.2143    0.0000 H   0  0  0  0  0  0  0  0  0  0  0  0
   13.0744  -23.0933    0.0000 H   0  0  0  0  0  0  0  0  0  0  0  0
   14.8793  -22.6725    0.0000 H   0  0  0  0  0  0  0  0  0  0  0  0
   14.0984  -23.4039    0.0000 H   0  0  0  0  0  0  0  0  0  0  0  0
   14.0324  -19.0400    0.0000 H   0  0  0  0  0  0  0  0  0  0  0  0
   12.2275  -19.4608    0.0000 H   0  0  0  0  0  0  0  0  0  0  0  0
   13.0084  -18.7293    0.0000 H   0  0  0  0  0  0  0  0  0  0  0  0
   15.5801  -21.5457    0.0000 H   0  0  0  0  0  0  0  0  0  0  0  0
   15.1593  -19.7408    0.0000 H   0  0  0  0  0  0  0  0  0  0  0  0
   15.8908  -20.5217    0.0000 H   0  0  0  0  0  0  0  0  0  0  0  0
   10.5338  -22.3656    0.0000 H   0  0  0  0  0  0  0  0  0  0  0  0
    9.1471  -21.1360    0.0000 H   0  0  0  0  0  0  0  0  0  0  0  0
   10.1954  -21.3505    0.0000 H   0  0  0  0  0  0  0  0  0  0  0  0
    6.6723  -23.9267    0.0000 H   0  0  0  0  0  0  0  0  0  0  0  0
    8.0589  -25.1564    0.0000 H   0  0  0  0  0  0  0  0  0  0  0  0
    7.0106  -24.9418    0.0000 H   0  0  0  0  0  0  0  0  0  0  0  0
    7.8224  -21.2155    0.0000 H   0  0  0  0  0  0  0  0  0  0  0  0
    6.5928  -22.6022    0.0000 H   0  0  0  0  0  0  0  0  0  0  0  0
    6.8073  -21.5539    0.0000 H   0  0  0  0  0  0  0  0  0  0  0  0
  1  2  1  0  0  0  0
  1  8  1  0  0  0  0
  1 11  1  0  0  0  0
  2  3  1  0  0  0  0
  2  4  2  0  0  0  0
  3  5  2  0  0  0  0
  3 37  1  0  0  0  0
  4  6  1  0  0  0  0
  4 38  1  0  0  0  0
  5  7  1  0  0  0  0
  5 39  1  0  0  0  0
  6  7  2  0  0  0  0
  6 40  1  0  0  0  0
  7 41  1  0  0  0  0
  8  9  1  0  0  0  0
  8 10  1  0  0  0  0
  9 21  1  0  0  0  0
 10 25  1  0  0  0  0
 11 12  1  0  0  0  0
 11 18  1  0  0  0  0
 12 13  1  0  0  0  0
 12 14  2  0  0  0  0
 13 15  2  0  0  0  0
 13 42  1  0  0  0  0
 14 16  1  0  0  0  0
 14 43  1  0  0  0  0
 15 17  1  0  0  0  0
 15 44  1  0  0  0  0
 16 17  2  0  0  0  0
 16 45  1  0  0  0  0
 17 46  1  0  0  0  0
 18 19  1  0  0  0  0
 18 20  1  0  0  0  0
 19 29  1  0  0  0  0
 20 33  1  0  0  0  0
 21 22  1  0  0  0  0
 21 23  1  0  0  0  0
 21 24  1  0  0  0  0
 22 47  1  0  0  0  0
 22 48  1  0  0  0  0
 22 49  1  0  0  0  0
 23 50  1  0  0  0  0
 23 51  1  0  0  0  0
 23 52  1  0  0  0  0
 24 53  1  0  0  0  0
 24 54  1  0  0  0  0
 24 55  1  0  0  0  0
 25 26  1  0  0  0  0
 25 27  1  0  0  0  0
 25 28  1  0  0  0  0
 26 56  1  0  0  0  0
 26 57  1  0  0  0  0
 26 58  1  0  0  0  0
 27 59  1  0  0  0  0
 27 60  1  0  0  0  0
 27 61  1  0  0  0  0
 28 62  1  0  0  0  0
 28 63  1  0  0  0  0
 28 64  1  0  0  0  0
 29 30  1  0  0  0  0
 29 31  1  0  0  0  0
 29 32  1  0  0  0  0
 30 65  1  0  0  0  0
 30 66  1  0  0  0  0
 30 67  1  0  0  0  0
 31 68  1  0  0  0  0
 31 69  1  0  0  0  0
 31 70  1  0  0  0  0
 32 71  1  0  0  0  0
 32 72  1  0  0  0  0
 32 73  1  0  0  0  0
 33 34  1  0  0  0  0
 33 35  1  0  0  0  0
 33 36  1  0  0  0  0
 34 74  1  0  0  0  0
 34 75  1  0  0  0  0
 34 76  1  0  0  0  0
 35 77  1  0  0  0  0
 35 78  1  0  0  0  0
 35 79  1  0  0  0  0
 36 80  1  0  0  0  0
 36 81  1  0  0  0  0
 36 82  1  0  0  0  0
M  END
> <NMREDATA_VERSION>
1.1

> <NMREDATA_LEVEL>
0

> <NMREDATA_FORMULA>
C28H46N2O4P2

> <NMREDATA_SMILES>
CC(OP(N(N(c1ccccc1)P(OC(C)(C)C)OC(C)(C)C)c1ccccc1)OC(C)(C)C)(C)C

> <NMREDATA_ASSIGNMENT>
P8, 136.80, 8
P18, 136.80, 18

> <NMREDATA_1D_31P>
136.80, L=P8
136.80, L=P18

$$$$
