
 OpenBabel08102311312D

 56 59  0  0  0  0  0  0  0  0999 V2000
    5.8282   -8.5958    0.0000 P   0  0  0  0  0  0  0  0  0  0  0  0
    6.7687   -9.1426    0.0000 C   0  0  0  0  0  0  0  0  0  0  0  0
    7.7191   -8.5938    0.0000 C   0  0  0  0  0  0  0  0  0  0  0  0
    6.7756  -10.2368    0.0000 O   0  0  0  0  0  0  0  0  0  0  0  0
    4.8778   -9.1445    0.0000 C   0  0  0  0  0  0  0  0  0  0  0  0
    4.8744  -10.2362    0.0000 C   0  0  0  0  0  0  0  0  0  0  0  0
    3.9307   -8.6015    0.0000 C   0  0  0  0  0  0  0  0  0  0  0  0
    3.9240  -10.7849    0.0000 C   0  0  0  0  0  0  0  0  0  0  0  0
    2.9803   -9.1503    0.0000 C   0  0  0  0  0  0  0  0  0  0  0  0
    2.9768  -10.2421    0.0000 C   0  0  0  0  0  0  0  0  0  0  0  0
    5.8249   -7.5079    0.0000 C   0  0  0  0  0  0  0  0  0  0  0  0
    4.8807   -6.9548    0.0000 C   0  0  0  0  0  0  0  0  0  0  0  0
    6.7753   -6.9592    0.0000 C   0  0  0  0  0  0  0  0  0  0  0  0
    4.8738   -5.8605    0.0000 C   0  0  0  0  0  0  0  0  0  0  0  0
    6.7750   -5.8611    0.0000 C   0  0  0  0  0  0  0  0  0  0  0  0
    5.8242   -5.3118    0.0000 C   0  0  0  0  0  0  0  0  0  0  0  0
    8.6699   -9.1432    0.0000 C   0  0  0  0  0  0  0  0  0  0  0  0
    8.6702  -10.2412    0.0000 O   0  0  0  0  0  0  0  0  0  0  0  0
    9.6203   -8.5945    0.0000 P   0  0  0  0  0  0  0  0  0  0  0  0
    9.6201   -7.4963    0.0000 C   0  0  0  0  0  0  0  0  0  0  0  0
   10.5712   -9.1437    0.0000 C   0  0  0  0  0  0  0  0  0  0  0  0
    7.7193   -7.4964    0.0000 C   0  0  0  0  0  0  0  0  0  0  0  0
    8.6696   -6.9477    0.0000 C   0  0  0  0  0  0  0  0  0  0  0  0
    8.6694   -5.8503    0.0000 C   0  0  0  0  0  0  0  0  0  0  0  0
    9.6198   -5.3014    0.0000 C   0  0  0  0  0  0  0  0  0  0  0  0
   10.5703   -5.8500    0.0000 C   0  0  0  0  0  0  0  0  0  0  0  0
   10.5704   -6.9474    0.0000 C   0  0  0  0  0  0  0  0  0  0  0  0
   11.5217   -8.5951    0.0000 C   0  0  0  0  0  0  0  0  0  0  0  0
   12.4720   -9.1440    0.0000 C   0  0  0  0  0  0  0  0  0  0  0  0
   12.4719  -10.2414    0.0000 C   0  0  0  0  0  0  0  0  0  0  0  0
   11.5214  -10.7900    0.0000 C   0  0  0  0  0  0  0  0  0  0  0  0
   10.5711  -10.2411    0.0000 C   0  0  0  0  0  0  0  0  0  0  0  0
    8.6459   -8.0591    0.0000 H   0  0  0  0  0  0  0  0  0  0  0  0
    5.7673  -10.7536    0.0000 H   0  0  0  0  0  0  0  0  0  0  0  0
    3.9291   -7.5695    0.0000 H   0  0  0  0  0  0  0  0  0  0  0  0
    3.9257  -11.8169    0.0000 H   0  0  0  0  0  0  0  0  0  0  0  0
    2.0874   -8.6329    0.0000 H   0  0  0  0  0  0  0  0  0  0  0  0
    2.0831  -10.7581    0.0000 H   0  0  0  0  0  0  0  0  0  0  0  0
    3.9870   -7.4708    0.0000 H   0  0  0  0  0  0  0  0  0  0  0  0
    7.6691   -7.4751    0.0000 H   0  0  0  0  0  0  0  0  0  0  0  0
    3.9784   -5.3473    0.0000 H   0  0  0  0  0  0  0  0  0  0  0  0
    7.6687   -5.3451    0.0000 H   0  0  0  0  0  0  0  0  0  0  0  0
    5.8244   -4.2798    0.0000 H   0  0  0  0  0  0  0  0  0  0  0  0
    8.6460   -6.9616    0.0000 H   0  0  0  0  0  0  0  0  0  0  0  0
    6.7928   -6.9612    0.0000 H   0  0  0  0  0  0  0  0  0  0  0  0
    7.7195   -6.4264    0.0000 H   0  0  0  0  0  0  0  0  0  0  0  0
    7.7759   -7.4638    0.0000 H   0  0  0  0  0  0  0  0  0  0  0  0
    7.7756   -5.3344    0.0000 H   0  0  0  0  0  0  0  0  0  0  0  0
    9.6197   -4.2694    0.0000 H   0  0  0  0  0  0  0  0  0  0  0  0
   11.4640   -5.3339    0.0000 H   0  0  0  0  0  0  0  0  0  0  0  0
   11.4642   -7.4633    0.0000 H   0  0  0  0  0  0  0  0  0  0  0  0
   11.5219   -7.5631    0.0000 H   0  0  0  0  0  0  0  0  0  0  0  0
   13.3658   -8.6281    0.0000 H   0  0  0  0  0  0  0  0  0  0  0  0
   13.3656  -10.7575    0.0000 H   0  0  0  0  0  0  0  0  0  0  0  0
   11.5212  -11.8220    0.0000 H   0  0  0  0  0  0  0  0  0  0  0  0
    9.6773  -10.7570    0.0000 H   0  0  0  0  0  0  0  0  0  0  0  0
  1  2  1  0  0  0  0
  1  5  1  0  0  0  0
  1 11  1  0  0  0  0
  2  3  1  0  0  0  0
  2  4  2  0  0  0  0
  3 17  1  0  0  0  0
  3 22  1  0  0  0  0
  3 33  1  0  0  0  0
  5  6  1  0  0  0  0
  5  7  2  0  0  0  0
  6  8  2  0  0  0  0
  6 34  1  0  0  0  0
  7  9  1  0  0  0  0
  7 35  1  0  0  0  0
  8 10  1  0  0  0  0
  8 36  1  0  0  0  0
  9 10  2  0  0  0  0
  9 37  1  0  0  0  0
 10 38  1  0  0  0  0
 11 12  1  0  0  0  0
 11 13  2  0  0  0  0
 12 14  2  0  0  0  0
 12 39  1  0  0  0  0
 13 15  1  0  0  0  0
 13 40  1  0  0  0  0
 14 16  1  0  0  0  0
 14 41  1  0  0  0  0
 15 16  2  0  0  0  0
 15 42  1  0  0  0  0
 16 43  1  0  0  0  0
 17 18  2  0  0  0  0
 17 19  1  0  0  0  0
 19 20  1  0  0  0  0
 19 21  1  0  0  0  0
 20 23  2  0  0  0  0
 20 27  1  0  0  0  0
 21 28  2  0  0  0  0
 21 32  1  0  0  0  0
 22 44  1  0  0  0  0
 22 45  1  0  0  0  0
 22 46  1  0  0  0  0
 23 24  1  0  0  0  0
 23 47  1  0  0  0  0
 24 25  2  0  0  0  0
 24 48  1  0  0  0  0
 25 26  1  0  0  0  0
 25 49  1  0  0  0  0
 26 27  2  0  0  0  0
 26 50  1  0  0  0  0
 27 51  1  0  0  0  0
 28 29  1  0  0  0  0
 28 52  1  0  0  0  0
 29 30  2  0  0  0  0
 29 53  1  0  0  0  0
 30 31  1  0  0  0  0
 30 54  1  0  0  0  0
 31 32  2  0  0  0  0
 31 55  1  0  0  0  0
 32 56  1  0  0  0  0
M  END
> <NMREDATA_VERSION>
1.1

> <NMREDATA_LEVEL>
0

> <NMREDATA_FORMULA>
C28H24O2P2

> <NMREDATA_SMILES>
CC(C(=O)P(c1ccccc1)c1ccccc1)C(=O)P(c1ccccc1)c1ccccc1

> <NMREDATA_ASSIGNMENT>
P1, 20.40, 1
P19, 20.40, 19

> <NMREDATA_1D_31P>
20.40, L=P1
20.40, L=P19

$$$$
