
 OpenBabel08102311322D

 28 28  0  0  0  0  0  0  0  0999 V2000
   21.5826  -11.9139    0.0000 O   0  0  0  0  0  0  0  0  0  0  0  0
   21.5826  -13.2439    0.0000 C   0  0  0  0  0  0  0  0  0  0  0  0
   20.4307  -11.2489    0.0000 P   0  0  3  0  0  0  0  0  0  0  0  0
   20.4307  -13.9089    0.0000 P   0  0  3  0  0  0  0  0  0  0  0  0
   19.2789  -11.9139    0.0000 C   0  0  0  0  0  0  0  0  0  0  0  0
   19.2789  -13.2439    0.0000 O   0  0  0  0  0  0  0  0  0  0  0  0
   19.2770  -10.1593    0.0000 O   0  0  0  0  0  0  0  0  0  0  0  0
   21.6325  -10.0631    0.0000 O   0  0  0  0  0  0  0  0  0  0  0  0
   21.3922  -15.0787    0.0000 O   0  0  0  0  0  0  0  0  0  0  0  0
   19.1328  -14.8704    0.0000 O   0  0  0  0  0  0  0  0  0  0  0  0
   18.3796  -15.9280    0.0000 C   0  0  0  0  0  0  0  0  0  0  0  0
   17.0557  -15.8015    0.0000 C   0  0  0  0  0  0  0  0  0  0  0  0
   22.7382   -8.9575    0.0000 C   0  0  0  0  0  0  0  0  0  0  0  0
   24.0229   -9.3017    0.0000 C   0  0  0  0  0  0  0  0  0  0  0  0
   22.5092  -13.7789    0.0000 H   0  0  0  0  0  0  0  0  0  0  0  0
   21.5826  -14.3139    0.0000 H   0  0  0  0  0  0  0  0  0  0  0  0
   18.3523  -11.3789    0.0000 H   0  0  0  0  0  0  0  0  0  0  0  0
   18.3523  -12.4489    0.0000 H   0  0  0  0  0  0  0  0  0  0  0  0
   18.8240  -16.9013    0.0000 H   0  0  0  0  0  0  0  0  0  0  0  0
   17.7589  -16.7996    0.0000 H   0  0  0  0  0  0  0  0  0  0  0  0
   16.6113  -14.8282    0.0000 H   0  0  0  0  0  0  0  0  0  0  0  0
   16.4350  -16.6731    0.0000 H   0  0  0  0  0  0  0  0  0  0  0  0
   15.9906  -15.6997    0.0000 H   0  0  0  0  0  0  0  0  0  0  0  0
   22.4613   -7.9240    0.0000 H   0  0  0  0  0  0  0  0  0  0  0  0
   23.4948   -8.2009    0.0000 H   0  0  0  0  0  0  0  0  0  0  0  0
   24.2999  -10.3352    0.0000 H   0  0  0  0  0  0  0  0  0  0  0  0
   24.7795   -8.5451    0.0000 H   0  0  0  0  0  0  0  0  0  0  0  0
   25.0564   -9.5786    0.0000 H   0  0  0  0  0  0  0  0  0  0  0  0
  1  2  1  0  0  0  0
  1  3  1  0  0  0  0
  2  4  1  0  0  0  0
  2 15  1  0  0  0  0
  2 16  1  0  0  0  0
  3  5  1  0  0  0  0
  3  7  2  0  0  0  0
  3  8  1  0  0  0  0
  4  6  1  0  0  0  0
  4  9  2  0  0  0  0
  4 10  1  0  0  0  0
  5  6  1  0  0  0  0
  5 17  1  0  0  0  0
  5 18  1  0  0  0  0
  8 13  1  0  0  0  0
 10 11  1  0  0  0  0
 11 12  1  0  0  0  0
 11 19  1  0  0  0  0
 11 20  1  0  0  0  0
 12 21  1  0  0  0  0
 12 22  1  0  0  0  0
 12 23  1  0  0  0  0
 13 14  1  0  0  0  0
 13 24  1  0  0  0  0
 13 25  1  0  0  0  0
 14 26  1  0  0  0  0
 14 27  1  0  0  0  0
 14 28  1  0  0  0  0
M  END
> <NMREDATA_VERSION>
1.1

> <NMREDATA_LEVEL>
0

> <NMREDATA_FORMULA>
C6H14O6P2

> <NMREDATA_SMILES>
CCOP1(=O)OCP(=O)(OC1)OCC

> <NMREDATA_ASSIGNMENT>
P3, 18.00, 3
P4, 18.00, 4

> <NMREDATA_1D_31P>
18.00, L=P3
18.00, L=P4

$$$$
