
 OpenBabel08102311312D

 78 83  0  0  0  0  0  0  0  0999 V2000
    6.3056  -11.5130    0.0000 P   0  0  0  0  0  0  0  0  0  0  0  0
    6.3056  -10.1861    0.0000 C   0  0  0  0  0  0  0  0  0  0  0  0
    5.1559  -12.1670    0.0000 C   0  0  0  0  0  0  0  0  0  0  0  0
    7.4553  -12.1670    0.0000 C   0  0  3  0  0  0  0  0  0  0  0  0
    7.4553  -13.4939    0.0000 C   0  0  0  0  0  0  0  0  0  0  0  0
    8.6053  -11.5130    0.0000 C   0  0  0  0  0  0  0  0  0  0  0  0
    9.7372  -12.1670    0.0000 C   0  0  0  0  0  0  0  0  0  0  0  0
   10.8872  -11.5130    0.0000 C   0  0  3  0  0  0  0  0  0  0  0  0
   10.8872  -10.1861    0.0000 C   0  0  0  0  0  0  0  0  0  0  0  0
   12.0369  -12.1670    0.0000 P   0  0  0  0  0  0  0  0  0  0  0  0
   12.0369  -13.4939    0.0000 C   0  0  0  0  0  0  0  0  0  0  0  0
   13.1866  -11.5130    0.0000 C   0  0  0  0  0  0  0  0  0  0  0  0
    5.1538   -9.5211    0.0000 C   0  0  0  0  0  0  0  0  0  0  0  0
    5.1538   -8.1911    0.0000 C   0  0  0  0  0  0  0  0  0  0  0  0
    6.3056   -7.5261    0.0000 C   0  0  0  0  0  0  0  0  0  0  0  0
    7.4574   -8.1911    0.0000 C   0  0  0  0  0  0  0  0  0  0  0  0
    7.4574   -9.5211    0.0000 C   0  0  0  0  0  0  0  0  0  0  0  0
    5.1474  -13.4897    0.0000 C   0  0  0  0  0  0  0  0  0  0  0  0
    3.9977  -14.1438    0.0000 C   0  0  0  0  0  0  0  0  0  0  0  0
    2.8565  -13.4751    0.0000 C   0  0  0  0  0  0  0  0  0  0  0  0
    2.8649  -12.1524    0.0000 C   0  0  0  0  0  0  0  0  0  0  0  0
    4.0146  -11.4983    0.0000 C   0  0  0  0  0  0  0  0  0  0  0  0
    8.6071  -14.1589    0.0000 C   0  0  0  0  0  0  0  0  0  0  0  0
    8.6071  -15.4889    0.0000 C   0  0  0  0  0  0  0  0  0  0  0  0
    7.4553  -16.1539    0.0000 C   0  0  0  0  0  0  0  0  0  0  0  0
    6.3035  -15.4889    0.0000 C   0  0  0  0  0  0  0  0  0  0  0  0
    6.3035  -14.1589    0.0000 C   0  0  0  0  0  0  0  0  0  0  0  0
    9.7353   -9.5211    0.0000 C   0  0  0  0  0  0  0  0  0  0  0  0
    9.7353   -8.1911    0.0000 C   0  0  0  0  0  0  0  0  0  0  0  0
   10.8871   -7.5261    0.0000 C   0  0  0  0  0  0  0  0  0  0  0  0
   12.0390   -8.1911    0.0000 C   0  0  0  0  0  0  0  0  0  0  0  0
   12.0390   -9.5211    0.0000 C   0  0  0  0  0  0  0  0  0  0  0  0
   13.1887  -14.1589    0.0000 C   0  0  0  0  0  0  0  0  0  0  0  0
   13.1887  -15.4889    0.0000 C   0  0  0  0  0  0  0  0  0  0  0  0
   12.0369  -16.1539    0.0000 C   0  0  0  0  0  0  0  0  0  0  0  0
   10.8851  -15.4889    0.0000 C   0  0  0  0  0  0  0  0  0  0  0  0
   10.8851  -14.1589    0.0000 C   0  0  0  0  0  0  0  0  0  0  0  0
   13.1950  -10.1903    0.0000 C   0  0  0  0  0  0  0  0  0  0  0  0
   14.3447   -9.5362    0.0000 C   0  0  0  0  0  0  0  0  0  0  0  0
   15.4860  -10.2049    0.0000 C   0  0  0  0  0  0  0  0  0  0  0  0
   15.4776  -11.5276    0.0000 C   0  0  0  0  0  0  0  0  0  0  0  0
   14.3279  -12.1816    0.0000 C   0  0  0  0  0  0  0  0  0  0  0  0
    6.5304  -12.7050    0.0000 H   0  0  0  0  0  0  0  0  0  0  0  0
    8.6090  -10.4430    0.0000 H   0  0  0  0  0  0  0  0  0  0  0  0
    9.5329  -10.9797    0.0000 H   0  0  0  0  0  0  0  0  0  0  0  0
    9.7335  -13.2370    0.0000 H   0  0  0  0  0  0  0  0  0  0  0  0
   10.6612  -12.7066    0.0000 H   0  0  0  0  0  0  0  0  0  0  0  0
   11.8121  -10.9750    0.0000 H   0  0  0  0  0  0  0  0  0  0  0  0
    4.2601  -10.0371    0.0000 H   0  0  0  0  0  0  0  0  0  0  0  0
    4.2601   -7.6751    0.0000 H   0  0  0  0  0  0  0  0  0  0  0  0
    6.3056   -6.4941    0.0000 H   0  0  0  0  0  0  0  0  0  0  0  0
    8.3511   -7.6751    0.0000 H   0  0  0  0  0  0  0  0  0  0  0  0
    8.3511  -10.0371    0.0000 H   0  0  0  0  0  0  0  0  0  0  0  0
    6.0378  -14.0114    0.0000 H   0  0  0  0  0  0  0  0  0  0  0  0
    3.9911  -15.1758    0.0000 H   0  0  0  0  0  0  0  0  0  0  0  0
    1.9595  -13.9854    0.0000 H   0  0  0  0  0  0  0  0  0  0  0  0
    1.9745  -11.6307    0.0000 H   0  0  0  0  0  0  0  0  0  0  0  0
    4.0212  -10.4663    0.0000 H   0  0  0  0  0  0  0  0  0  0  0  0
    9.5008  -13.6429    0.0000 H   0  0  0  0  0  0  0  0  0  0  0  0
    9.5008  -16.0049    0.0000 H   0  0  0  0  0  0  0  0  0  0  0  0
    7.4553  -17.1859    0.0000 H   0  0  0  0  0  0  0  0  0  0  0  0
    5.4098  -16.0049    0.0000 H   0  0  0  0  0  0  0  0  0  0  0  0
    5.4098  -13.6429    0.0000 H   0  0  0  0  0  0  0  0  0  0  0  0
    8.8416  -10.0371    0.0000 H   0  0  0  0  0  0  0  0  0  0  0  0
    8.8416   -7.6751    0.0000 H   0  0  0  0  0  0  0  0  0  0  0  0
   10.8871   -6.4941    0.0000 H   0  0  0  0  0  0  0  0  0  0  0  0
   12.9327   -7.6751    0.0000 H   0  0  0  0  0  0  0  0  0  0  0  0
   12.9327  -10.0371    0.0000 H   0  0  0  0  0  0  0  0  0  0  0  0
   14.0824  -13.6429    0.0000 H   0  0  0  0  0  0  0  0  0  0  0  0
   14.0824  -16.0049    0.0000 H   0  0  0  0  0  0  0  0  0  0  0  0
   12.0369  -17.1859    0.0000 H   0  0  0  0  0  0  0  0  0  0  0  0
    9.9914  -16.0049    0.0000 H   0  0  0  0  0  0  0  0  0  0  0  0
    9.9914  -13.6429    0.0000 H   0  0  0  0  0  0  0  0  0  0  0  0
   12.3046   -9.6686    0.0000 H   0  0  0  0  0  0  0  0  0  0  0  0
   14.3513   -8.5042    0.0000 H   0  0  0  0  0  0  0  0  0  0  0  0
   16.3830   -9.6946    0.0000 H   0  0  0  0  0  0  0  0  0  0  0  0
   16.3680  -12.0493    0.0000 H   0  0  0  0  0  0  0  0  0  0  0  0
   14.3213  -13.2136    0.0000 H   0  0  0  0  0  0  0  0  0  0  0  0
  1  2  1  0  0  0  0
  1  3  1  0  0  0  0
  1  4  1  0  0  0  0
  2 13  2  0  0  0  0
  2 17  1  0  0  0  0
  3 18  2  0  0  0  0
  3 22  1  0  0  0  0
  4  5  1  0  0  0  0
  4  6  1  0  0  0  0
  4 43  1  0  0  0  0
  5 23  2  0  0  0  0
  5 27  1  0  0  0  0
  6  7  1  0  0  0  0
  6 44  1  0  0  0  0
  6 45  1  0  0  0  0
  7  8  1  0  0  0  0
  7 46  1  0  0  0  0
  7 47  1  0  0  0  0
  8  9  1  0  0  0  0
  8 10  1  0  0  0  0
  8 48  1  0  0  0  0
  9 28  2  0  0  0  0
  9 32  1  0  0  0  0
 10 11  1  0  0  0  0
 10 12  1  0  0  0  0
 11 33  2  0  0  0  0
 11 37  1  0  0  0  0
 12 38  2  0  0  0  0
 12 42  1  0  0  0  0
 13 14  1  0  0  0  0
 13 49  1  0  0  0  0
 14 15  2  0  0  0  0
 14 50  1  0  0  0  0
 15 16  1  0  0  0  0
 15 51  1  0  0  0  0
 16 17  2  0  0  0  0
 16 52  1  0  0  0  0
 17 53  1  0  0  0  0
 18 19  1  0  0  0  0
 18 54  1  0  0  0  0
 19 20  2  0  0  0  0
 19 55  1  0  0  0  0
 20 21  1  0  0  0  0
 20 56  1  0  0  0  0
 21 22  2  0  0  0  0
 21 57  1  0  0  0  0
 22 58  1  0  0  0  0
 23 24  1  0  0  0  0
 23 59  1  0  0  0  0
 24 25  2  0  0  0  0
 24 60  1  0  0  0  0
 25 26  1  0  0  0  0
 25 61  1  0  0  0  0
 26 27  2  0  0  0  0
 26 62  1  0  0  0  0
 27 63  1  0  0  0  0
 28 29  1  0  0  0  0
 28 64  1  0  0  0  0
 29 30  2  0  0  0  0
 29 65  1  0  0  0  0
 30 31  1  0  0  0  0
 30 66  1  0  0  0  0
 31 32  2  0  0  0  0
 31 67  1  0  0  0  0
 32 68  1  0  0  0  0
 33 34  1  0  0  0  0
 33 69  1  0  0  0  0
 34 35  2  0  0  0  0
 34 70  1  0  0  0  0
 35 36  1  0  0  0  0
 35 71  1  0  0  0  0
 36 37  2  0  0  0  0
 36 72  1  0  0  0  0
 37 73  1  0  0  0  0
 38 39  1  0  0  0  0
 38 74  1  0  0  0  0
 39 40  2  0  0  0  0
 39 75  1  0  0  0  0
 40 41  1  0  0  0  0
 40 76  1  0  0  0  0
 41 42  2  0  0  0  0
 41 77  1  0  0  0  0
 42 78  1  0  0  0  0
M  END
> <NMREDATA_VERSION>
1.1

> <NMREDATA_LEVEL>
0

> <NMREDATA_FORMULA>
C40H36P2

> <NMREDATA_SMILES>
c1ccc(cc1)C(P(c1ccccc1)c1ccccc1)CCC(P(c1ccccc1)c1ccccc1)c1ccccc1

> <NMREDATA_ASSIGNMENT>
P1, 5.90, 1
P10, 5.90, 10

> <NMREDATA_1D_31P>
5.90, L=P1
5.90, L=P10

$$$$
