
 OpenBabel08102311322D

 37 36  0  0  0  0  0  0  0  0999 V2000
    7.8678   -7.9159    0.0000 P   0  0  0  0  0  0  0  0  0  0  0  0
    8.4127   -4.4066    0.0000 O   0  0  0  0  0  0  0  0  0  0  0  0
    5.1598   -6.4096    0.0000 O   0  0  0  0  0  0  0  0  0  0  0  0
    6.3616   -9.0216    0.0000 O   0  0  0  0  0  0  0  0  0  0  0  0
    4.4547   -4.4547    0.0000 C   0  0  0  0  0  0  0  0  0  0  0  0
    3.5574   -3.2529    0.0000 C   0  0  0  0  0  0  0  0  0  0  0  0
    4.9514   -9.3100    0.0000 C   0  0  0  0  0  0  0  0  0  0  0  0
    4.6149  -11.1207    0.0000 C   0  0  0  0  0  0  0  0  0  0  0  0
   11.8258   -8.3646    0.0000 S   0  0  0  0  0  0  0  0  0  0  0  0
   13.3641   -8.4127    0.0000 P   0  0  0  0  0  0  0  0  0  0  0  0
   12.9154   -4.6630    0.0000 O   0  0  0  0  0  0  0  0  0  0  0  0
   14.6300   -8.4607    0.0000 O   0  0  0  0  0  0  0  0  0  0  0  0
   14.4698  -11.6175    0.0000 O   0  0  0  0  0  0  0  0  0  0  0  0
   17.0336   -6.7141    0.0000 C   0  0  0  0  0  0  0  0  0  0  0  0
   19.2770   -8.1082    0.0000 C   0  0  0  0  0  0  0  0  0  0  0  0
   13.0276  -13.1718    0.0000 C   0  0  0  0  0  0  0  0  0  0  0  0
   15.4312  -15.0306    0.0000 C   0  0  0  0  0  0  0  0  0  0  0  0
    5.3969   -3.9476    0.0000 H   0  0  0  0  0  0  0  0  0  0  0  0
    4.6860   -3.4100    0.0000 H   0  0  0  0  0  0  0  0  0  0  0  0
    3.9798   -2.2698    0.0000 H   0  0  0  0  0  0  0  0  0  0  0  0
    2.4948   -3.3786    0.0000 H   0  0  0  0  0  0  0  0  0  0  0  0
    2.9173   -2.3955    0.0000 H   0  0  0  0  0  0  0  0  0  0  0  0
    4.1880   -8.5602    0.0000 H   0  0  0  0  0  0  0  0  0  0  0  0
    3.9309   -9.6316    0.0000 H   0  0  0  0  0  0  0  0  0  0  0  0
    3.6061  -11.4774    0.0000 H   0  0  0  0  0  0  0  0  0  0  0  0
    5.4282  -11.8160    0.0000 H   0  0  0  0  0  0  0  0  0  0  0  0
    4.4194  -12.1727    0.0000 H   0  0  0  0  0  0  0  0  0  0  0  0
   16.9949   -5.6448    0.0000 H   0  0  0  0  0  0  0  0  0  0  0  0
   17.9592   -6.1774    0.0000 H   0  0  0  0  0  0  0  0  0  0  0  0
   19.2423   -9.1776    0.0000 H   0  0  0  0  0  0  0  0  0  0  0  0
   20.2205   -7.6035    0.0000 H   0  0  0  0  0  0  0  0  0  0  0  0
   20.1858   -8.6730    0.0000 H   0  0  0  0  0  0  0  0  0  0  0  0
   11.9612  -13.2597    0.0000 H   0  0  0  0  0  0  0  0  0  0  0  0
   12.7237  -14.1977    0.0000 H   0  0  0  0  0  0  0  0  0  0  0  0
   15.2875  -16.0909    0.0000 H   0  0  0  0  0  0  0  0  0  0  0  0
   16.4213  -14.6249    0.0000 H   0  0  0  0  0  0  0  0  0  0  0  0
   16.2776  -15.6852    0.0000 H   0  0  0  0  0  0  0  0  0  0  0  0
  1  2  2  0  0  0  0
  1  3  1  0  0  0  0
  1  4  1  0  0  0  0
  1  9  1  0  0  0  0
  3  5  1  0  0  0  0
  4  7  1  0  0  0  0
  5  6  1  0  0  0  0
  5 18  1  0  0  0  0
  5 19  1  0  0  0  0
  6 20  1  0  0  0  0
  6 21  1  0  0  0  0
  6 22  1  0  0  0  0
  7  8  1  0  0  0  0
  7 23  1  0  0  0  0
  7 24  1  0  0  0  0
  8 25  1  0  0  0  0
  8 26  1  0  0  0  0
  8 27  1  0  0  0  0
  9 10  1  0  0  0  0
 10 11  2  0  0  0  0
 10 12  1  0  0  0  0
 10 13  1  0  0  0  0
 12 14  1  0  0  0  0
 13 16  1  0  0  0  0
 14 15  1  0  0  0  0
 14 28  1  0  0  0  0
 14 29  1  0  0  0  0
 15 30  1  0  0  0  0
 15 31  1  0  0  0  0
 15 32  1  0  0  0  0
 16 17  1  0  0  0  0
 16 33  1  0  0  0  0
 16 34  1  0  0  0  0
 17 35  1  0  0  0  0
 17 36  1  0  0  0  0
 17 37  1  0  0  0  0
M  END
> <NMREDATA_VERSION>
1.1

> <NMREDATA_LEVEL>
0

> <NMREDATA_FORMULA>
C8H20O6P2S

> <NMREDATA_SMILES>
CCOP(=O)(SP(=O)(OCC)OCC)OCC

> <NMREDATA_ASSIGNMENT>
P1, 14.30, 1
P10, 14.30, 10

> <NMREDATA_1D_31P>
14.30, L=P1
14.30, L=P10

$$$$
