
 OpenBabel08102311302D

 46 47  0  0  0  0  0  0  0  0999 V2000
   16.2482  -11.6375    0.0000 P   0  0  3  0  0  0  0  0  0  0  0  0
   17.5782  -12.9675    0.0000 P   0  0  3  0  0  0  0  0  0  0  0  0
   17.5782  -11.6375    0.0000 N   0  0  0  0  0  0  0  0  0  0  0  0
   16.2483  -12.9675    0.0000 N   0  0  0  0  0  0  0  0  0  0  0  0
   18.5186  -10.6971    0.0000 C   0  0  0  0  0  0  0  0  0  0  0  0
   19.4591  -11.6375    0.0000 C   0  0  0  0  0  0  0  0  0  0  0  0
   17.5782   -9.7566    0.0000 C   0  0  0  0  0  0  0  0  0  0  0  0
   19.4591   -9.7566    0.0000 C   0  0  0  0  0  0  0  0  0  0  0  0
   15.3079  -13.9080    0.0000 C   0  0  0  0  0  0  0  0  0  0  0  0
   14.3674  -12.9676    0.0000 C   0  0  0  0  0  0  0  0  0  0  0  0
   16.2484  -14.8484    0.0000 C   0  0  0  0  0  0  0  0  0  0  0  0
   14.3675  -14.8485    0.0000 C   0  0  0  0  0  0  0  0  0  0  0  0
   15.0068  -10.6400    0.0000 N   0  0  0  0  0  0  0  0  0  0  0  0
   17.2678   -8.8223    0.0000 C   0  0  0  0  0  0  0  0  0  0  0  0
   20.2382   -9.3543    0.0000 C   0  0  0  0  0  0  0  0  0  0  0  0
   19.7727  -13.8763    0.0000 N   0  0  0  0  0  0  0  0  0  0  0  0
   20.9697  -14.7630    0.0000 C   0  0  0  0  0  0  0  0  0  0  0  0
   12.5907   -9.8642    0.0000 C   0  0  0  0  0  0  0  0  0  0  0  0
   19.1822  -12.6711    0.0000 H   0  0  0  0  0  0  0  0  0  0  0  0
   20.4926  -11.3605    0.0000 H   0  0  0  0  0  0  0  0  0  0  0  0
   20.2157  -12.3941    0.0000 H   0  0  0  0  0  0  0  0  0  0  0  0
   17.8552   -8.7231    0.0000 H   0  0  0  0  0  0  0  0  0  0  0  0
   16.5446  -10.0335    0.0000 H   0  0  0  0  0  0  0  0  0  0  0  0
   16.8216   -9.0000    0.0000 H   0  0  0  0  0  0  0  0  0  0  0  0
   20.4926  -10.0335    0.0000 H   0  0  0  0  0  0  0  0  0  0  0  0
   19.1822   -8.7231    0.0000 H   0  0  0  0  0  0  0  0  0  0  0  0
   20.2157   -9.0000    0.0000 H   0  0  0  0  0  0  0  0  0  0  0  0
   14.6443  -11.9340    0.0000 H   0  0  0  0  0  0  0  0  0  0  0  0
   13.3339  -13.2446    0.0000 H   0  0  0  0  0  0  0  0  0  0  0  0
   13.6108  -12.2110    0.0000 H   0  0  0  0  0  0  0  0  0  0  0  0
   15.9715  -15.8820    0.0000 H   0  0  0  0  0  0  0  0  0  0  0  0
   17.2819  -14.5714    0.0000 H   0  0  0  0  0  0  0  0  0  0  0  0
   17.0050  -15.6050    0.0000 H   0  0  0  0  0  0  0  0  0  0  0  0
   13.3339  -14.5716    0.0000 H   0  0  0  0  0  0  0  0  0  0  0  0
   14.6445  -15.8820    0.0000 H   0  0  0  0  0  0  0  0  0  0  0  0
   13.6109  -15.6051    0.0000 H   0  0  0  0  0  0  0  0  0  0  0  0
   17.0031   -7.7856    0.0000 H   0  0  0  0  0  0  0  0  0  0  0  0
   17.9964   -8.0387    0.0000 H   0  0  0  0  0  0  0  0  0  0  0  0
   21.0929   -8.7106    0.0000 H   0  0  0  0  0  0  0  0  0  0  0  0
   21.1700   -9.8803    0.0000 H   0  0  0  0  0  0  0  0  0  0  0  0
   20.8480  -15.8261    0.0000 H   0  0  0  0  0  0  0  0  0  0  0  0
   21.9512  -14.3369    0.0000 H   0  0  0  0  0  0  0  0  0  0  0  0
   21.8295  -15.3999    0.0000 H   0  0  0  0  0  0  0  0  0  0  0  0
   12.3646   -8.8184    0.0000 H   0  0  0  0  0  0  0  0  0  0  0  0
   11.7980  -10.5829    0.0000 H   0  0  0  0  0  0  0  0  0  0  0  0
   11.5719   -9.5371    0.0000 H   0  0  0  0  0  0  0  0  0  0  0  0
  1  3  1  0  0  0  0
  1  4  1  0  0  0  0
  1 13  1  0  0  0  0
  2  4  1  0  0  0  0
  2  3  1  0  0  0  0
  3  5  1  0  0  0  0
  4  9  1  0  0  0  0
  5  6  1  0  0  0  0
  5  7  1  0  0  0  0
  5  8  1  0  0  0  0
  6 19  1  0  0  0  0
  6 20  1  0  0  0  0
  6 21  1  0  0  0  0
  7 22  1  0  0  0  0
  7 23  1  0  0  0  0
  7 24  1  0  0  0  0
  8 25  1  0  0  0  0
  8 26  1  0  0  0  0
  8 27  1  0  0  0  0
  9 10  1  0  0  0  0
  9 11  1  0  0  0  0
  9 12  1  0  0  0  0
 10 28  1  0  0  0  0
 10 29  1  0  0  0  0
 10 30  1  0  0  0  0
 11 31  1  0  0  0  0
 11 32  1  0  0  0  0
 11 33  1  0  0  0  0
 12 34  1  0  0  0  0
 12 35  1  0  0  0  0
 12 36  1  0  0  0  0
 13 14  1  0  0  0  0
 13 18  1  0  0  0  0
 14 15  1  0  0  0  0
 14 37  1  0  0  0  0
 14 38  1  0  0  0  0
 15 16  1  0  0  0  0
 15 39  1  0  0  0  0
 15 40  1  0  0  0  0
 16  2  1  0  0  0  0
 16 17  1  0  0  0  0
 17 41  1  0  0  0  0
 17 42  1  0  0  0  0
 17 43  1  0  0  0  0
 18 44  1  0  0  0  0
 18 45  1  0  0  0  0
 18 46  1  0  0  0  0
M  END
> <NMREDATA_VERSION>
1.1

> <NMREDATA_LEVEL>
0

> <NMREDATA_FORMULA>
C12H28N4P2

> <NMREDATA_SMILES>
CN1CCN(P2N(P1N2C(C)(C)C)C(C)(C)C)C

> <NMREDATA_ASSIGNMENT>
P1, 155.00, 1
P2, 155.00, 2

> <NMREDATA_1D_31P>
155.00, L=P1
155.00, L=P2

$$$$
