
 OpenBabel08102311322D

 73 72  0  0  0  0  0  0  0  0999 V2000
   20.4886  -14.7420    0.0000 P   0  0  3  0  0  0  0  0  0  0  0  0
   21.2498  -16.0603    0.0000 H   0  0  0  0  0  0  0  0  0  0  0  0
   19.1703  -15.5031    0.0000 O   0  0  0  0  0  0  0  0  0  0  0  0
   19.7275  -13.4237    0.0000 C   0  0  3  0  0  0  0  0  0  0  0  0
   21.8070  -13.9808    0.0000 C   0  0  0  0  0  0  0  0  0  0  0  0
   20.4886  -12.1053    0.0000 O   0  0  0  0  0  0  0  0  0  0  0  0
   15.9218  -17.3787    0.0000 P   0  0  3  0  0  0  0  0  0  0  0  0
   14.6034  -18.1398    0.0000 H   0  0  0  0  0  0  0  0  0  0  0  0
   17.2401  -16.6175    0.0000 O   0  0  0  0  0  0  0  0  0  0  0  0
   16.6829  -18.6970    0.0000 C   0  0  0  0  0  0  0  0  0  0  0  0
   15.1606  -16.0603    0.0000 C   0  0  3  0  0  0  0  0  0  0  0  0
   13.6383  -16.0603    0.0000 O   0  0  0  0  0  0  0  0  0  0  0  0
   15.9218  -14.7420    0.0000 C   0  0  0  0  0  0  0  0  0  0  0  0
   17.4441  -14.7420    0.0000 C   0  0  0  0  0  0  0  0  0  0  0  0
   18.2052  -13.4237    0.0000 C   0  0  0  0  0  0  0  0  0  0  0  0
   21.8070  -12.4586    0.0000 C   0  0  0  0  0  0  0  0  0  0  0  0
   23.1253  -11.6974    0.0000 C   0  0  0  0  0  0  0  0  0  0  0  0
   23.1253  -10.1751    0.0000 C   0  0  0  0  0  0  0  0  0  0  0  0
   24.4437   -9.4140    0.0000 C   0  0  0  0  0  0  0  0  0  0  0  0
   24.4437   -7.8917    0.0000 C   0  0  0  0  0  0  0  0  0  0  0  0
   25.7620   -7.1305    0.0000 C   0  0  0  0  0  0  0  0  0  0  0  0
   25.7620   -5.6083    0.0000 C   0  0  0  0  0  0  0  0  0  0  0  0
   18.2052  -18.6970    0.0000 C   0  0  0  0  0  0  0  0  0  0  0  0
   18.9664  -20.0154    0.0000 C   0  0  0  0  0  0  0  0  0  0  0  0
   20.4886  -20.0153    0.0000 C   0  0  0  0  0  0  0  0  0  0  0  0
   21.2498  -21.3337    0.0000 C   0  0  0  0  0  0  0  0  0  0  0  0
   22.7721  -21.3337    0.0000 C   0  0  0  0  0  0  0  0  0  0  0  0
   23.5332  -22.6520    0.0000 C   0  0  0  0  0  0  0  0  0  0  0  0
   25.0555  -22.6520    0.0000 C   0  0  0  0  0  0  0  0  0  0  0  0
   20.7975  -13.4237    0.0000 H   0  0  0  0  0  0  0  0  0  0  0  0
   22.7337  -14.5158    0.0000 H   0  0  0  0  0  0  0  0  0  0  0  0
   22.7336  -13.4458    0.0000 H   0  0  0  0  0  0  0  0  0  0  0  0
   21.4586  -12.1053    0.0000 H   0  0  0  0  0  0  0  0  0  0  0  0
   16.1479  -19.6236    0.0000 H   0  0  0  0  0  0  0  0  0  0  0  0
   17.2179  -19.6236    0.0000 H   0  0  0  0  0  0  0  0  0  0  0  0
   14.6256  -16.9870    0.0000 H   0  0  0  0  0  0  0  0  0  0  0  0
   13.1533  -15.2203    0.0000 H   0  0  0  0  0  0  0  0  0  0  0  0
   15.3868  -13.8153    0.0000 H   0  0  0  0  0  0  0  0  0  0  0  0
   16.4568  -13.8154    0.0000 H   0  0  0  0  0  0  0  0  0  0  0  0
   17.9791  -15.6686    0.0000 H   0  0  0  0  0  0  0  0  0  0  0  0
   18.5141  -14.7420    0.0000 H   0  0  0  0  0  0  0  0  0  0  0  0
   17.6702  -12.4971    0.0000 H   0  0  0  0  0  0  0  0  0  0  0  0
   18.7402  -12.4971    0.0000 H   0  0  0  0  0  0  0  0  0  0  0  0
   20.8803  -11.9236    0.0000 H   0  0  0  0  0  0  0  0  0  0  0  0
   21.8070  -11.3886    0.0000 H   0  0  0  0  0  0  0  0  0  0  0  0
   24.0520  -12.2324    0.0000 H   0  0  0  0  0  0  0  0  0  0  0  0
   24.0519  -11.1624    0.0000 H   0  0  0  0  0  0  0  0  0  0  0  0
   22.1987   -9.6401    0.0000 H   0  0  0  0  0  0  0  0  0  0  0  0
   23.1253   -9.1051    0.0000 H   0  0  0  0  0  0  0  0  0  0  0  0
   25.3703   -9.9490    0.0000 H   0  0  0  0  0  0  0  0  0  0  0  0
   25.3704   -8.8790    0.0000 H   0  0  0  0  0  0  0  0  0  0  0  0
   23.5170   -7.3567    0.0000 H   0  0  0  0  0  0  0  0  0  0  0  0
   24.4437   -6.8217    0.0000 H   0  0  0  0  0  0  0  0  0  0  0  0
   26.6887   -7.6655    0.0000 H   0  0  0  0  0  0  0  0  0  0  0  0
   26.6886   -6.5955    0.0000 H   0  0  0  0  0  0  0  0  0  0  0  0
   26.6886   -5.0733    0.0000 H   0  0  0  0  0  0  0  0  0  0  0  0
   24.8354   -5.0733    0.0000 H   0  0  0  0  0  0  0  0  0  0  0  0
   25.7620   -4.5383    0.0000 H   0  0  0  0  0  0  0  0  0  0  0  0
   18.7402  -17.7703    0.0000 H   0  0  0  0  0  0  0  0  0  0  0  0
   19.2752  -18.6970    0.0000 H   0  0  0  0  0  0  0  0  0  0  0  0
   18.4314  -20.9421    0.0000 H   0  0  0  0  0  0  0  0  0  0  0  0
   19.5014  -20.9420    0.0000 H   0  0  0  0  0  0  0  0  0  0  0  0
   21.0236  -19.0886    0.0000 H   0  0  0  0  0  0  0  0  0  0  0  0
   21.5586  -20.0153    0.0000 H   0  0  0  0  0  0  0  0  0  0  0  0
   20.7148  -22.2604    0.0000 H   0  0  0  0  0  0  0  0  0  0  0  0
   21.7848  -22.2603    0.0000 H   0  0  0  0  0  0  0  0  0  0  0  0
   23.3071  -20.4071    0.0000 H   0  0  0  0  0  0  0  0  0  0  0  0
   23.8421  -21.3337    0.0000 H   0  0  0  0  0  0  0  0  0  0  0  0
   22.9982  -23.5786    0.0000 H   0  0  0  0  0  0  0  0  0  0  0  0
   24.0682  -23.5786    0.0000 H   0  0  0  0  0  0  0  0  0  0  0  0
   25.5905  -23.5786    0.0000 H   0  0  0  0  0  0  0  0  0  0  0  0
   25.5905  -21.7254    0.0000 H   0  0  0  0  0  0  0  0  0  0  0  0
   26.1255  -22.6520    0.0000 H   0  0  0  0  0  0  0  0  0  0  0  0
  1  2  1  0  0  0  0
  1  3  2  0  0  0  0
  1  4  1  0  0  0  0
  1  5  1  0  0  0  0
  4  6  1  0  0  0  0
  4 30  1  0  0  0  0
  5 16  1  0  0  0  0
  5 31  1  0  0  0  0
  5 32  1  0  0  0  0
  6 33  1  0  0  0  0
  7  8  1  0  0  0  0
  7  9  2  0  0  0  0
  7 10  1  0  0  0  0
  7 11  1  0  0  0  0
 10 23  1  0  0  0  0
 10 34  1  0  0  0  0
 10 35  1  0  0  0  0
 11 12  1  0  0  0  0
 11 13  1  0  0  0  0
 11 36  1  0  0  0  0
 12 37  1  0  0  0  0
 13 14  1  0  0  0  0
 13 38  1  0  0  0  0
 13 39  1  0  0  0  0
 14 15  1  0  0  0  0
 14 40  1  0  0  0  0
 14 41  1  0  0  0  0
 15  4  1  0  0  0  0
 15 42  1  0  0  0  0
 15 43  1  0  0  0  0
 16 17  1  0  0  0  0
 16 44  1  0  0  0  0
 16 45  1  0  0  0  0
 17 18  1  0  0  0  0
 17 46  1  0  0  0  0
 17 47  1  0  0  0  0
 18 19  1  0  0  0  0
 18 48  1  0  0  0  0
 18 49  1  0  0  0  0
 19 20  1  0  0  0  0
 19 50  1  0  0  0  0
 19 51  1  0  0  0  0
 20 21  1  0  0  0  0
 20 52  1  0  0  0  0
 20 53  1  0  0  0  0
 21 22  1  0  0  0  0
 21 54  1  0  0  0  0
 21 55  1  0  0  0  0
 22 56  1  0  0  0  0
 22 57  1  0  0  0  0
 22 58  1  0  0  0  0
 23 24  1  0  0  0  0
 23 59  1  0  0  0  0
 23 60  1  0  0  0  0
 24 25  1  0  0  0  0
 24 61  1  0  0  0  0
 24 62  1  0  0  0  0
 25 26  1  0  0  0  0
 25 63  1  0  0  0  0
 25 64  1  0  0  0  0
 26 27  1  0  0  0  0
 26 65  1  0  0  0  0
 26 66  1  0  0  0  0
 27 28  1  0  0  0  0
 27 67  1  0  0  0  0
 27 68  1  0  0  0  0
 28 29  1  0  0  0  0
 28 69  1  0  0  0  0
 28 70  1  0  0  0  0
 29 71  1  0  0  0  0
 29 72  1  0  0  0  0
 29 73  1  0  0  0  0
M  END
> <NMREDATA_VERSION>
1.1

> <NMREDATA_LEVEL>
0

> <NMREDATA_FORMULA>
C21H46O4P2

> <NMREDATA_SMILES>
CCCCCCCCP(=O)C(CCCC(P(=O)CCCCCCCC)O)O

> <NMREDATA_ASSIGNMENT>
P1, 46.00, 1
P7, 46.00, 7

> <NMREDATA_1D_31P>
46.00, L=P1
46.00, L=P7

$$$$
