
 OpenBabel08102311322D

 21 20  0  0  0  0  0  0  0  0999 V2000
    5.1117  -10.9605    0.0000 P   0  0  0  0  0  0  0  0  0  0  0  0
    5.3040   -9.1658    0.0000 O   0  0  0  0  0  0  0  0  0  0  0  0
    3.6054  -11.0246    0.0000 O   0  0  0  0  0  0  0  0  0  0  0  0
    4.6149  -12.6751    0.0000 O   0  0  0  0  0  0  0  0  0  0  0  0
    7.5634  -11.4252    0.0000 C   0  0  0  0  0  0  0  0  0  0  0  0
    8.1503  -13.1042    0.0000 C   0  0  0  0  0  0  0  0  0  0  0  0
    8.7240  -10.0774    0.0000 C   0  0  0  0  0  0  0  0  0  0  0  0
   10.2714  -11.5213    0.0000 P   0  0  0  0  0  0  0  0  0  0  0  0
   11.1056  -13.0923    0.0000 O   0  0  0  0  0  0  0  0  0  0  0  0
   11.2149  -10.0135    0.0000 O   0  0  0  0  0  0  0  0  0  0  0  0
   12.0181  -11.5694    0.0000 O   0  0  0  0  0  0  0  0  0  0  0  0
    3.0851  -10.2059    0.0000 H   0  0  0  0  0  0  0  0  0  0  0  0
    3.6731  -12.9072    0.0000 H   0  0  0  0  0  0  0  0  0  0  0  0
    7.4521  -13.9150    0.0000 H   0  0  0  0  0  0  0  0  0  0  0  0
    9.2016  -13.3035    0.0000 H   0  0  0  0  0  0  0  0  0  0  0  0
    8.5034  -14.1143    0.0000 H   0  0  0  0  0  0  0  0  0  0  0  0
    9.7753  -10.2766    0.0000 H   0  0  0  0  0  0  0  0  0  0  0  0
    8.3709   -9.0673    0.0000 H   0  0  0  0  0  0  0  0  0  0  0  0
    9.4222   -9.2666    0.0000 H   0  0  0  0  0  0  0  0  0  0  0  0
   10.5911  -13.9146    0.0000 H   0  0  0  0  0  0  0  0  0  0  0  0
   12.4798  -12.4225    0.0000 H   0  0  0  0  0  0  0  0  0  0  0  0
  1  2  2  0  0  0  0
  1  3  1  0  0  0  0
  1  4  1  0  0  0  0
  1  5  1  0  0  0  0
  3 12  1  0  0  0  0
  4 13  1  0  0  0  0
  5  6  1  0  0  0  0
  5  7  1  0  0  0  0
  5  8  1  0  0  0  0
  6 14  1  0  0  0  0
  6 15  1  0  0  0  0
  6 16  1  0  0  0  0
  7 17  1  0  0  0  0
  7 18  1  0  0  0  0
  7 19  1  0  0  0  0
  8  9  1  0  0  0  0
  8 10  2  0  0  0  0
  8 11  1  0  0  0  0
  9 20  1  0  0  0  0
 11 21  1  0  0  0  0
M  END
> <NMREDATA_VERSION>
1.1

> <NMREDATA_LEVEL>
0

> <NMREDATA_FORMULA>
C3H10O6P2

> <NMREDATA_SMILES>
CC(P(=O)(O)O)(P(=O)(O)O)C

> <NMREDATA_ASSIGNMENT>
P1, 27.00, 1
P8, 27.00, 8

> <NMREDATA_1D_31P>
27.00, L=P1
27.00, L=P8

$$$$
