
 OpenBabel08102311322D

 51 50  0  0  0  0  0  0  0  0999 V2000
    8.6210   -9.9670    0.0000 Se   0  0  0  0  0  0  0  0  0  0  0  0
   10.6240   -7.4672    0.0000 S    0  0  0  0  0  0  0  0  0  0  0  0
    9.8708  -12.6751    0.0000 S    0  0  0  0  0  0  0  0  0  0  0  0
   12.8674   -7.6114    0.0000 P    0  0  0  0  0  0  0  0  0  0  0  0
   13.5724  -12.6270    0.0000 P    0  0  0  0  0  0  0  0  0  0  0  0
   12.5629   -4.1022    0.0000 O    0  0  0  0  0  0  0  0  0  0  0  0
   13.9249  -10.5599    0.0000 O    0  0  0  0  0  0  0  0  0  0  0  0
   15.4793   -7.5634    0.0000 O    0  0  0  0  0  0  0  0  0  0  0  0
   14.8223   -6.1052    0.0000 O    0  0  0  0  0  0  0  0  0  0  0  0
   16.6330  -12.6270    0.0000 O    0  0  0  0  0  0  0  0  0  0  0  0
   14.5659  -14.8223    0.0000 O    0  0  0  0  0  0  0  0  0  0  0  0
   13.1615  -16.7804    0.0000 C    0  0  0  0  0  0  0  0  0  0  0  0
   14.1552  -18.9758    0.0000 C    0  0  0  0  0  0  0  0  0  0  0  0
   10.7636  -16.5431    0.0000 C    0  0  0  0  0  0  0  0  0  0  0  0
   17.8379  -14.7138    0.0000 C    0  0  0  0  0  0  0  0  0  0  0  0
   20.2477  -14.7137    0.0000 C    0  0  0  0  0  0  0  0  0  0  0  0
   16.6331  -16.8006    0.0000 C    0  0  0  0  0  0  0  0  0  0  0  0
   16.7223   -9.6276    0.0000 C    0  0  0  0  0  0  0  0  0  0  0  0
   19.1318   -9.5832    0.0000 C    0  0  0  0  0  0  0  0  0  0  0  0
   15.5561  -11.7363    0.0000 C    0  0  0  0  0  0  0  0  0  0  0  0
   17.0504   -7.0228    0.0000 C    0  0  0  0  0  0  0  0  0  0  0  0
   18.9593   -5.5520    0.0000 C    0  0  0  0  0  0  0  0  0  0  0  0
   17.3697   -9.4112    0.0000 C    0  0  0  0  0  0  0  0  0  0  0  0
   12.7203  -15.8056    0.0000 H    0  0  0  0  0  0  0  0  0  0  0  0
   13.5316  -19.8453    0.0000 H    0  0  0  0  0  0  0  0  0  0  0  0
   15.2200  -19.0811    0.0000 H    0  0  0  0  0  0  0  0  0  0  0  0
   14.5964  -19.9506    0.0000 H    0  0  0  0  0  0  0  0  0  0  0  0
   10.3225  -15.5683    0.0000 H    0  0  0  0  0  0  0  0  0  0  0  0
   10.1399  -17.4126    0.0000 H    0  0  0  0  0  0  0  0  0  0  0  0
    9.6988  -16.4377    0.0000 H    0  0  0  0  0  0  0  0  0  0  0  0
   16.7679  -14.7138    0.0000 H    0  0  0  0  0  0  0  0  0  0  0  0
   20.7827  -15.6403    0.0000 H    0  0  0  0  0  0  0  0  0  0  0  0
   20.7827  -13.7870    0.0000 H    0  0  0  0  0  0  0  0  0  0  0  0
   21.3177  -14.7137    0.0000 H    0  0  0  0  0  0  0  0  0  0  0  0
   15.5631  -16.8006    0.0000 H    0  0  0  0  0  0  0  0  0  0  0  0
   17.1681  -17.7272    0.0000 H    0  0  0  0  0  0  0  0  0  0  0  0
   16.0981  -17.7272    0.0000 H    0  0  0  0  0  0  0  0  0  0  0  0
   15.6525   -9.6473    0.0000 H    0  0  0  0  0  0  0  0  0  0  0  0
   19.6838  -10.4998    0.0000 H    0  0  0  0  0  0  0  0  0  0  0  0
   19.6496   -8.6469    0.0000 H    0  0  0  0  0  0  0  0  0  0  0  0
   20.2016   -9.5635    0.0000 H    0  0  0  0  0  0  0  0  0  0  0  0
   14.4863  -11.7560    0.0000 H    0  0  0  0  0  0  0  0  0  0  0  0
   16.1081  -12.6529    0.0000 H    0  0  0  0  0  0  0  0  0  0  0  0
   15.0383  -12.6726    0.0000 H    0  0  0  0  0  0  0  0  0  0  0  0
   16.2028   -7.6759    0.0000 H    0  0  0  0  0  0  0  0  0  0  0  0
   19.9487   -5.9595    0.0000 H    0  0  0  0  0  0  0  0  0  0  0  0
   18.8175   -4.4914    0.0000 H    0  0  0  0  0  0  0  0  0  0  0  0
   19.8069   -4.8989    0.0000 H    0  0  0  0  0  0  0  0  0  0  0  0
   16.5221  -10.0643    0.0000 H    0  0  0  0  0  0  0  0  0  0  0  0
   18.3591   -9.8187    0.0000 H    0  0  0  0  0  0  0  0  0  0  0  0
   17.5115  -10.4718    0.0000 H    0  0  0  0  0  0  0  0  0  0  0  0
  1  2  1  0  0  0  0
  1  3  1  0  0  0  0
  2  4  1  0  0  0  0
  3  5  1  0  0  0  0
  4  6  2  0  0  0  0
  4  8  1  0  0  0  0
  4  9  1  0  0  0  0
  5  7  2  0  0  0  0
  5 10  1  0  0  0  0
  5 11  1  0  0  0  0
  8 18  1  0  0  0  0
  9 21  1  0  0  0  0
 10 15  1  0  0  0  0
 11 12  1  0  0  0  0
 12 13  1  0  0  0  0
 12 14  1  0  0  0  0
 12 24  1  0  0  0  0
 13 25  1  0  0  0  0
 13 26  1  0  0  0  0
 13 27  1  0  0  0  0
 14 28  1  0  0  0  0
 14 29  1  0  0  0  0
 14 30  1  0  0  0  0
 15 16  1  0  0  0  0
 15 17  1  0  0  0  0
 15 31  1  0  0  0  0
 16 32  1  0  0  0  0
 16 33  1  0  0  0  0
 16 34  1  0  0  0  0
 17 35  1  0  0  0  0
 17 36  1  0  0  0  0
 17 37  1  0  0  0  0
 18 19  1  0  0  0  0
 18 20  1  0  0  0  0
 18 38  1  0  0  0  0
 19 39  1  0  0  0  0
 19 40  1  0  0  0  0
 19 41  1  0  0  0  0
 20 42  1  0  0  0  0
 20 43  1  0  0  0  0
 20 44  1  0  0  0  0
 21 22  1  0  0  0  0
 21 23  1  0  0  0  0
 21 45  1  0  0  0  0
 22 46  1  0  0  0  0
 22 47  1  0  0  0  0
 22 48  1  0  0  0  0
 23 49  1  0  0  0  0
 23 50  1  0  0  0  0
 23 51  1  0  0  0  0
M  END
> <NMREDATA_VERSION>
1.1

> <NMREDATA_LEVEL>
0

> <NMREDATA_FORMULA>
C12H28O6P2S2Se

> <NMREDATA_SMILES>
CC(OP(=O)(OC(C)C)S[Se]SP(=O)(OC(C)C)OC(C)C)C

> <NMREDATA_ASSIGNMENT>
P4, 18.30, 4
P5, 18.30, 5

> <NMREDATA_1D_31P>
18.30, L=P4
18.30, L=P5

$$$$
