
 OpenBabel08102311312D

 56 59  0  0  0  0  0  0  0  0999 V2000
    7.0024  -10.4383    0.0000 P   0  0  3  0  0  0  0  0  0  0  0  0
    5.9387   -9.8242    0.0000 C   0  0  0  0  0  0  0  0  0  0  0  0
    8.0661   -9.8242    0.0000 C   0  0  0  0  0  0  0  0  0  0  0  0
    7.0024  -11.6666    0.0000 C   0  0  0  0  0  0  0  0  0  0  0  0
    5.9387  -12.2807    0.0000 C   0  0  0  0  0  0  0  0  0  0  0  0
    8.0661  -12.2807    0.0000 O   0  0  0  0  0  0  0  0  0  0  0  0
    9.1298  -10.4383    0.0000 C   0  0  0  0  0  0  0  0  0  0  0  0
   10.1934   -9.8242    0.0000 P   0  0  3  0  0  0  0  0  0  0  0  0
   10.1934   -8.5959    0.0000 C   0  0  0  0  0  0  0  0  0  0  0  0
    9.1298   -7.9818    0.0000 C   0  0  0  0  0  0  0  0  0  0  0  0
   11.2571   -7.9818    0.0000 O   0  0  0  0  0  0  0  0  0  0  0  0
   11.2571  -10.4383    0.0000 C   0  0  0  0  0  0  0  0  0  0  0  0
    4.8750  -10.4383    0.0000 C   0  0  0  0  0  0  0  0  0  0  0  0
    3.8113   -9.8242    0.0000 C   0  0  0  0  0  0  0  0  0  0  0  0
    3.8113   -8.5959    0.0000 C   0  0  0  0  0  0  0  0  0  0  0  0
    4.8750   -7.9818    0.0000 C   0  0  0  0  0  0  0  0  0  0  0  0
    5.9387   -8.5959    0.0000 C   0  0  0  0  0  0  0  0  0  0  0  0
    5.9387  -13.5089    0.0000 C   0  0  0  0  0  0  0  0  0  0  0  0
    4.8750  -14.1231    0.0000 C   0  0  0  0  0  0  0  0  0  0  0  0
    3.8113  -13.5089    0.0000 C   0  0  0  0  0  0  0  0  0  0  0  0
    3.8113  -12.2807    0.0000 C   0  0  0  0  0  0  0  0  0  0  0  0
    4.8750  -11.6666    0.0000 C   0  0  0  0  0  0  0  0  0  0  0  0
    8.0661   -8.5959    0.0000 C   0  0  0  0  0  0  0  0  0  0  0  0
    7.0024   -7.9818    0.0000 C   0  0  0  0  0  0  0  0  0  0  0  0
    7.0024   -6.7536    0.0000 C   0  0  0  0  0  0  0  0  0  0  0  0
    8.0661   -6.1394    0.0000 C   0  0  0  0  0  0  0  0  0  0  0  0
    9.1298   -6.7536    0.0000 C   0  0  0  0  0  0  0  0  0  0  0  0
   12.3208   -9.8242    0.0000 C   0  0  0  0  0  0  0  0  0  0  0  0
   13.3845  -10.4383    0.0000 C   0  0  0  0  0  0  0  0  0  0  0  0
   13.3845  -11.6666    0.0000 C   0  0  0  0  0  0  0  0  0  0  0  0
   12.3208  -12.2807    0.0000 C   0  0  0  0  0  0  0  0  0  0  0  0
   11.2572  -11.6666    0.0000 C   0  0  0  0  0  0  0  0  0  0  0  0
    8.0661   -8.7542    0.0000 H   0  0  0  0  0  0  0  0  0  0  0  0
    8.9927   -9.2892    0.0000 H   0  0  0  0  0  0  0  0  0  0  0  0
    9.1298  -11.5083    0.0000 H   0  0  0  0  0  0  0  0  0  0  0  0
   10.0565  -10.9733    0.0000 H   0  0  0  0  0  0  0  0  0  0  0  0
    4.8750  -11.4703    0.0000 H   0  0  0  0  0  0  0  0  0  0  0  0
    2.9176  -10.3402    0.0000 H   0  0  0  0  0  0  0  0  0  0  0  0
    2.9176   -8.0799    0.0000 H   0  0  0  0  0  0  0  0  0  0  0  0
    4.8750   -6.9498    0.0000 H   0  0  0  0  0  0  0  0  0  0  0  0
    6.8324   -8.0799    0.0000 H   0  0  0  0  0  0  0  0  0  0  0  0
    6.8325  -14.0249    0.0000 H   0  0  0  0  0  0  0  0  0  0  0  0
    4.8750  -15.1551    0.0000 H   0  0  0  0  0  0  0  0  0  0  0  0
    2.9175  -14.0249    0.0000 H   0  0  0  0  0  0  0  0  0  0  0  0
    2.9176  -11.7647    0.0000 H   0  0  0  0  0  0  0  0  0  0  0  0
    4.8750  -10.6346    0.0000 H   0  0  0  0  0  0  0  0  0  0  0  0
    8.0661   -9.6279    0.0000 H   0  0  0  0  0  0  0  0  0  0  0  0
    6.1087   -8.4978    0.0000 H   0  0  0  0  0  0  0  0  0  0  0  0
    6.1086   -6.2376    0.0000 H   0  0  0  0  0  0  0  0  0  0  0  0
    8.0661   -5.1074    0.0000 H   0  0  0  0  0  0  0  0  0  0  0  0
   10.0236   -6.2376    0.0000 H   0  0  0  0  0  0  0  0  0  0  0  0
   12.3208   -8.7922    0.0000 H   0  0  0  0  0  0  0  0  0  0  0  0
   14.2782   -9.9223    0.0000 H   0  0  0  0  0  0  0  0  0  0  0  0
   14.2782  -12.1826    0.0000 H   0  0  0  0  0  0  0  0  0  0  0  0
   12.3208  -13.3127    0.0000 H   0  0  0  0  0  0  0  0  0  0  0  0
   10.3635  -12.1826    0.0000 H   0  0  0  0  0  0  0  0  0  0  0  0
  1  2  1  0  0  0  0
  1  3  1  0  0  0  0
  1  4  1  0  0  0  0
  2 13  2  0  0  0  0
  2 17  1  0  0  0  0
  3  7  1  0  0  0  0
  3 33  1  0  0  0  0
  3 34  1  0  0  0  0
  4  5  1  0  0  0  0
  4  6  2  0  0  0  0
  5 18  2  0  0  0  0
  5 22  1  0  0  0  0
  7  8  1  0  0  0  0
  7 35  1  0  0  0  0
  7 36  1  0  0  0  0
  8  9  1  0  0  0  0
  8 12  1  0  0  0  0
  9 10  1  0  0  0  0
  9 11  2  0  0  0  0
 10 23  2  0  0  0  0
 10 27  1  0  0  0  0
 12 28  2  0  0  0  0
 12 32  1  0  0  0  0
 13 14  1  0  0  0  0
 13 37  1  0  0  0  0
 14 15  2  0  0  0  0
 14 38  1  0  0  0  0
 15 16  1  0  0  0  0
 15 39  1  0  0  0  0
 16 17  2  0  0  0  0
 16 40  1  0  0  0  0
 17 41  1  0  0  0  0
 18 19  1  0  0  0  0
 18 42  1  0  0  0  0
 19 20  2  0  0  0  0
 19 43  1  0  0  0  0
 20 21  1  0  0  0  0
 20 44  1  0  0  0  0
 21 22  2  0  0  0  0
 21 45  1  0  0  0  0
 22 46  1  0  0  0  0
 23 24  1  0  0  0  0
 23 47  1  0  0  0  0
 24 25  2  0  0  0  0
 24 48  1  0  0  0  0
 25 26  1  0  0  0  0
 25 49  1  0  0  0  0
 26 27  2  0  0  0  0
 26 50  1  0  0  0  0
 27 51  1  0  0  0  0
 28 29  1  0  0  0  0
 28 52  1  0  0  0  0
 29 30  2  0  0  0  0
 29 53  1  0  0  0  0
 30 31  1  0  0  0  0
 30 54  1  0  0  0  0
 31 32  2  0  0  0  0
 31 55  1  0  0  0  0
 32 56  1  0  0  0  0
M  END
> <NMREDATA_VERSION>
1.1

> <NMREDATA_LEVEL>
0

> <NMREDATA_FORMULA>
C28H24O2P2

> <NMREDATA_SMILES>
O=C(P(c1ccccc1)CCP(C(=O)c1ccccc1)c1ccccc1)c1ccccc1

> <NMREDATA_ASSIGNMENT>
P1, 4.30, 1
P8, 4.30, 8

> <NMREDATA_1D_31P>
4.30, L=P1
4.30, L=P8

$$$$
