
 OpenBabel08102311302D

 86 87  0  0  0  0  0  0  0  0999 V2000
   16.5890  -12.8590    0.0000 N   0  0  0  0  0  0  0  0  0  0  0  0
   16.4154  -11.5403    0.0000 C   0  0  0  0  0  0  0  0  0  0  0  0
   17.7340  -11.3667    0.0000 C   0  0  0  0  0  0  0  0  0  0  0  0
   15.0967  -11.7139    0.0000 C   0  0  0  0  0  0  0  0  0  0  0  0
   16.2418  -10.2217    0.0000 C   0  0  0  0  0  0  0  0  0  0  0  0
   15.5338  -13.6686    0.0000 C   0  0  0  0  0  0  0  0  0  0  0  0
   15.7074  -14.9872    0.0000 C   0  0  0  0  0  0  0  0  0  0  0  0
   14.6523  -15.7969    0.0000 O   0  0  0  0  0  0  0  0  0  0  0  0
   14.8258  -17.1155    0.0000 P   0  0  0  0  0  0  0  0  0  0  0  0
   16.1105  -17.4597    0.0000 O   0  0  0  0  0  0  0  0  0  0  0  0
   16.7755  -18.6116    0.0000 C   0  0  0  0  0  0  0  0  0  0  0  0
   16.4313  -19.8962    0.0000 C   0  0  0  0  0  0  0  0  0  0  0  0
   15.2795  -20.5612    0.0000 N   0  0  0  0  0  0  0  0  0  0  0  0
   15.4531  -21.8799    0.0000 C   0  0  0  0  0  0  0  0  0  0  0  0
   14.1345  -22.0535    0.0000 C   0  0  0  0  0  0  0  0  0  0  0  0
   16.7717  -21.7063    0.0000 C   0  0  0  0  0  0  0  0  0  0  0  0
   15.6267  -23.1985    0.0000 C   0  0  0  0  0  0  0  0  0  0  0  0
   13.9948  -20.2170    0.0000 C   0  0  0  0  0  0  0  0  0  0  0  0
   13.3298  -19.0652    0.0000 C   0  0  0  0  0  0  0  0  0  0  0  0
   13.6740  -17.7805    0.0000 O   0  0  0  0  0  0  0  0  0  0  0  0
   24.3783  -12.6933    0.0000 C   0  0  0  0  0  0  0  0  0  0  0  0
   24.5519  -14.0119    0.0000 C   0  0  0  0  0  0  0  0  0  0  0  0
   23.4967  -14.8216    0.0000 O   0  0  0  0  0  0  0  0  0  0  0  0
   23.6703  -16.1402    0.0000 P   0  0  0  0  0  0  0  0  0  0  0  0
   24.9550  -16.4844    0.0000 O   0  0  0  0  0  0  0  0  0  0  0  0
   25.6200  -17.6362    0.0000 C   0  0  0  0  0  0  0  0  0  0  0  0
   25.2758  -18.9209    0.0000 C   0  0  0  0  0  0  0  0  0  0  0  0
   24.1240  -19.5859    0.0000 N   0  0  0  0  0  0  0  0  0  0  0  0
   24.2976  -20.9045    0.0000 C   0  0  0  0  0  0  0  0  0  0  0  0
   22.9790  -21.0781    0.0000 C   0  0  0  0  0  0  0  0  0  0  0  0
   25.6162  -20.7309    0.0000 C   0  0  0  0  0  0  0  0  0  0  0  0
   24.4712  -22.2231    0.0000 C   0  0  0  0  0  0  0  0  0  0  0  0
   22.8393  -19.2417    0.0000 C   0  0  0  0  0  0  0  0  0  0  0  0
   22.1743  -18.0899    0.0000 C   0  0  0  0  0  0  0  0  0  0  0  0
   22.5185  -16.8052    0.0000 O   0  0  0  0  0  0  0  0  0  0  0  0
   18.3854  -12.2156    0.0000 H   0  0  0  0  0  0  0  0  0  0  0  0
   18.1435  -10.3781    0.0000 H   0  0  0  0  0  0  0  0  0  0  0  0
   18.7948  -11.2270    0.0000 H   0  0  0  0  0  0  0  0  0  0  0  0
   14.4453  -10.8650    0.0000 H   0  0  0  0  0  0  0  0  0  0  0  0
   14.6872  -12.7024    0.0000 H   0  0  0  0  0  0  0  0  0  0  0  0
   14.0359  -11.8536    0.0000 H   0  0  0  0  0  0  0  0  0  0  0  0
   17.0907   -9.5703    0.0000 H   0  0  0  0  0  0  0  0  0  0  0  0
   15.2532   -9.8122    0.0000 H   0  0  0  0  0  0  0  0  0  0  0  0
   16.1021   -9.1609    0.0000 H   0  0  0  0  0  0  0  0  0  0  0  0
   14.5453  -13.2591    0.0000 H   0  0  0  0  0  0  0  0  0  0  0  0
   14.6849  -14.3200    0.0000 H   0  0  0  0  0  0  0  0  0  0  0  0
   16.6960  -15.3966    0.0000 H   0  0  0  0  0  0  0  0  0  0  0  0
   15.8471  -16.0480    0.0000 H   0  0  0  0  0  0  0  0  0  0  0  0
   17.8363  -18.4720    0.0000 H   0  0  0  0  0  0  0  0  0  0  0  0
   17.4810  -19.4161    0.0000 H   0  0  0  0  0  0  0  0  0  0  0  0
   17.2802  -20.5476    0.0000 H   0  0  0  0  0  0  0  0  0  0  0  0
   16.3613  -20.9639    0.0000 H   0  0  0  0  0  0  0  0  0  0  0  0
   13.4831  -21.2046    0.0000 H   0  0  0  0  0  0  0  0  0  0  0  0
   13.7250  -23.0421    0.0000 H   0  0  0  0  0  0  0  0  0  0  0  0
   13.0737  -22.1932    0.0000 H   0  0  0  0  0  0  0  0  0  0  0  0
   17.4231  -22.5552    0.0000 H   0  0  0  0  0  0  0  0  0  0  0  0
   17.1812  -20.7177    0.0000 H   0  0  0  0  0  0  0  0  0  0  0  0
   17.8325  -21.5666    0.0000 H   0  0  0  0  0  0  0  0  0  0  0  0
   14.7778  -23.8499    0.0000 H   0  0  0  0  0  0  0  0  0  0  0  0
   16.6153  -23.6080    0.0000 H   0  0  0  0  0  0  0  0  0  0  0  0
   15.7664  -24.2593    0.0000 H   0  0  0  0  0  0  0  0  0  0  0  0
   13.3434  -21.0659    0.0000 H   0  0  0  0  0  0  0  0  0  0  0  0
   12.9271  -20.1470    0.0000 H   0  0  0  0  0  0  0  0  0  0  0  0
   12.2690  -19.2049    0.0000 H   0  0  0  0  0  0  0  0  0  0  0  0
   12.6243  -18.2607    0.0000 H   0  0  0  0  0  0  0  0  0  0  0  0
   25.0752  -11.8814    0.0000 H   0  0  0  0  0  0  0  0  0  0  0  0
   23.9212  -11.7258    0.0000 H   0  0  0  0  0  0  0  0  0  0  0  0
   25.5405  -14.4214    0.0000 H   0  0  0  0  0  0  0  0  0  0  0  0
   24.6916  -15.0727    0.0000 H   0  0  0  0  0  0  0  0  0  0  0  0
   26.6808  -17.4965    0.0000 H   0  0  0  0  0  0  0  0  0  0  0  0
   26.3255  -18.4407    0.0000 H   0  0  0  0  0  0  0  0  0  0  0  0
   26.1247  -19.5723    0.0000 H   0  0  0  0  0  0  0  0  0  0  0  0
   25.2058  -19.9886    0.0000 H   0  0  0  0  0  0  0  0  0  0  0  0
   22.3276  -20.2292    0.0000 H   0  0  0  0  0  0  0  0  0  0  0  0
   22.5695  -22.0667    0.0000 H   0  0  0  0  0  0  0  0  0  0  0  0
   21.9182  -21.2178    0.0000 H   0  0  0  0  0  0  0  0  0  0  0  0
   26.2676  -21.5798    0.0000 H   0  0  0  0  0  0  0  0  0  0  0  0
   26.0257  -19.7423    0.0000 H   0  0  0  0  0  0  0  0  0  0  0  0
   26.6770  -20.5912    0.0000 H   0  0  0  0  0  0  0  0  0  0  0  0
   23.6223  -22.8745    0.0000 H   0  0  0  0  0  0  0  0  0  0  0  0
   25.4598  -22.6326    0.0000 H   0  0  0  0  0  0  0  0  0  0  0  0
   24.6109  -23.2839    0.0000 H   0  0  0  0  0  0  0  0  0  0  0  0
   22.1879  -20.0906    0.0000 H   0  0  0  0  0  0  0  0  0  0  0  0
   21.7716  -19.1717    0.0000 H   0  0  0  0  0  0  0  0  0  0  0  0
   21.1135  -18.2296    0.0000 H   0  0  0  0  0  0  0  0  0  0  0  0
   21.4688  -17.2854    0.0000 H   0  0  0  0  0  0  0  0  0  0  0  0
  1  2  1  0  0  0  0
  1  6  1  0  0  0  0
  1 21  1  0  0  0  0
  2  3  1  0  0  0  0
  2  4  1  0  0  0  0
  2  5  1  0  0  0  0
  3 36  1  0  0  0  0
  3 37  1  0  0  0  0
  3 38  1  0  0  0  0
  4 39  1  0  0  0  0
  4 40  1  0  0  0  0
  4 41  1  0  0  0  0
  5 42  1  0  0  0  0
  5 43  1  0  0  0  0
  5 44  1  0  0  0  0
  6  7  1  0  0  0  0
  6 45  1  0  0  0  0
  6 46  1  0  0  0  0
  7  8  1  0  0  0  0
  7 47  1  0  0  0  0
  7 48  1  0  0  0  0
  8  9  1  0  0  0  0
  9 10  1  0  0  0  0
 10 11  1  0  0  0  0
 11 12  1  0  0  0  0
 11 49  1  0  0  0  0
 11 50  1  0  0  0  0
 12 13  1  0  0  0  0
 12 51  1  0  0  0  0
 12 52  1  0  0  0  0
 13 14  1  0  0  0  0
 13 18  1  0  0  0  0
 14 15  1  0  0  0  0
 14 16  1  0  0  0  0
 14 17  1  0  0  0  0
 15 53  1  0  0  0  0
 15 54  1  0  0  0  0
 15 55  1  0  0  0  0
 16 56  1  0  0  0  0
 16 57  1  0  0  0  0
 16 58  1  0  0  0  0
 17 59  1  0  0  0  0
 17 60  1  0  0  0  0
 17 61  1  0  0  0  0
 18 19  1  0  0  0  0
 18 62  1  0  0  0  0
 18 63  1  0  0  0  0
 19 20  1  0  0  0  0
 19 64  1  0  0  0  0
 19 65  1  0  0  0  0
 20  9  1  0  0  0  0
 21 22  1  0  0  0  0
 21 66  1  0  0  0  0
 21 67  1  0  0  0  0
 22 23  1  0  0  0  0
 22 68  1  0  0  0  0
 22 69  1  0  0  0  0
 23 24  1  0  0  0  0
 24 25  1  0  0  0  0
 25 26  1  0  0  0  0
 26 27  1  0  0  0  0
 26 70  1  0  0  0  0
 26 71  1  0  0  0  0
 27 28  1  0  0  0  0
 27 72  1  0  0  0  0
 27 73  1  0  0  0  0
 28 29  1  0  0  0  0
 28 33  1  0  0  0  0
 29 30  1  0  0  0  0
 29 31  1  0  0  0  0
 29 32  1  0  0  0  0
 30 74  1  0  0  0  0
 30 75  1  0  0  0  0
 30 76  1  0  0  0  0
 31 77  1  0  0  0  0
 31 78  1  0  0  0  0
 31 79  1  0  0  0  0
 32 80  1  0  0  0  0
 32 81  1  0  0  0  0
 32 82  1  0  0  0  0
 33 34  1  0  0  0  0
 33 83  1  0  0  0  0
 33 84  1  0  0  0  0
 34 35  1  0  0  0  0
 34 85  1  0  0  0  0
 34 86  1  0  0  0  0
 35 24  1  0  0  0  0
M  END
> <NMREDATA_VERSION>
1.1

> <NMREDATA_LEVEL>
0

> <NMREDATA_FORMULA>
C24H51N3O6P2

> <NMREDATA_SMILES>
CC(N(CCOP1OCCN(CCO1)C(C)(C)C)CCOP1OCCN(CCO1)C(C)(C)C)(C)C

> <NMREDATA_ASSIGNMENT>
P9, 137.00, 9
P24, 137.00, 24

> <NMREDATA_1D_31P>
137.00, L=P9
137.00, L=P24

$$$$
