
 OpenBabel04012508592D

 24 24  0  0  0  0  0  0  0  0999 V2000
   16.6980  -10.5067    0.0000 N   0  0  0  0  0  0  0  0  0  0  0  0
   16.7550  -11.8353    0.0000 P   0  0  0  0  0  0  0  0  0  0  0  0
   15.5187   -9.8914    0.0000 P   0  0  0  0  0  0  0  0  0  0  0  0
   15.6325  -12.5490    0.0000 N   0  0  0  0  0  0  0  0  0  0  0  0
   14.3964  -10.6052    0.0000 N   0  0  0  0  0  0  0  0  0  0  0  0
   14.4534  -11.9339    0.0000 P   0  0  0  0  0  0  0  0  0  0  0  0
   14.0692   -8.4607    0.0000 N   0  0  0  0  0  0  0  0  0  0  0  0
   16.6330   -8.3165    0.0000 N   0  0  0  0  0  0  0  0  0  0  0  0
   18.1713  -11.0246    0.0000 N   0  0  0  0  0  0  0  0  0  0  0  0
   17.6265  -13.2199    0.0000 N   0  0  0  0  0  0  0  0  0  0  0  0
   12.7231  -11.6175    0.0000 N   0  0  0  0  0  0  0  0  0  0  0  0
   13.6686  -13.4282    0.0000 N   0  0  0  0  0  0  0  0  0  0  0  0
   12.1069   -9.0003    0.0000 C   0  0  0  0  0  0  0  0  0  0  0  0
   10.1447   -9.5398    0.0000 S   0  0  0  0  0  0  0  0  0  0  0  0
   15.8289   -6.5698    0.0000 C   0  0  0  0  0  0  0  0  0  0  0  0
   15.0248   -4.8231    0.0000 S   0  0  0  0  0  0  0  0  0  0  0  0
   18.1774   -9.3901    0.0000 C   0  0  0  0  0  0  0  0  0  0  0  0
   18.1834   -7.7557    0.0000 S   0  0  0  0  0  0  0  0  0  0  0  0
   19.2598  -13.1575    0.0000 C   0  0  0  0  0  0  0  0  0  0  0  0
   20.8930  -13.0952    0.0000 S   0  0  0  0  0  0  0  0  0  0  0  0
   11.5816  -12.9605    0.0000 C   0  0  0  0  0  0  0  0  0  0  0  0
   10.4400  -14.3036    0.0000 S   0  0  0  0  0  0  0  0  0  0  0  0
   14.5674  -14.8505    0.0000 C   0  0  0  0  0  0  0  0  0  0  0  0
   15.4663  -16.2728    0.0000 S   0  0  0  0  0  0  0  0  0  0  0  0
  1  2  2  0  0  0  0
  1  3  1  0  0  0  0
  2  9  1  0  0  0  0
  2 10  1  0  0  0  0
  3  5  2  0  0  0  0
  3  7  1  0  0  0  0
  3  8  1  0  0  0  0
  4  6  2  0  0  0  0
  4  2  1  0  0  0  0
  5  6  1  0  0  0  0
  6 11  1  0  0  0  0
  6 12  1  0  0  0  0
  7 13  2  0  0  0  0
  8 15  2  0  0  0  0
  9 17  2  0  0  0  0
 10 19  2  0  0  0  0
 11 21  2  0  0  0  0
 12 23  2  0  0  0  0
 13 14  2  0  0  0  0
 15 16  2  0  0  0  0
 17 18  2  0  0  0  0
 19 20  2  0  0  0  0
 21 22  2  0  0  0  0
 23 24  2  0  0  0  0
M  END
> <NMREDATA_VERSION>
1.1

> <NMREDATA_LEVEL>
0

> <NMREDATA_FORMULA>
C6N9P3S6

> <NMREDATA_SMILES>
S=C=NP1(=NP(=NP(=N1)(N=C=S)N=C=S)(N=C=S)N=C=S)N=C=S

> <NMREDATA_ASSIGNMENT>
P2, -30.00, 2
P3, -30.00, 3
P6, -30.00, 6

> <NMREDATA_1D_31P>
-30.00, L=P2
-30.00, L=P3
-30.00, L=P6

$$$$
