
 OpenBabel08102311332D

 49 52  0  0  0  0  0  0  0  0999 V2000
   17.7868  -12.8674    0.0000 P   0  0  0  0  0  0  0  0  0  0  0  0
   14.0051  -12.1142    0.0000 C   0  0  0  0  0  0  0  0  0  0  0  0
   18.9245   -9.4702    0.0000 S   0  0  0  0  0  0  0  0  0  0  0  0
   21.1999  -14.3896    0.0000 O   0  0  0  0  0  0  0  0  0  0  0  0
   16.6490  -17.4182    0.0000 C   0  0  0  0  0  0  0  0  0  0  0  0
   14.0051  -10.7842    0.0000 C   0  0  0  0  0  0  0  0  0  0  0  0
   12.8532  -10.1192    0.0000 C   0  0  0  0  0  0  0  0  0  0  0  0
   12.8532  -12.7792    0.0000 C   0  0  0  0  0  0  0  0  0  0  0  0
   11.7014  -10.7842    0.0000 C   0  0  0  0  0  0  0  0  0  0  0  0
   11.7014  -12.1142    0.0000 C   0  0  0  0  0  0  0  0  0  0  0  0
   17.8009  -18.0832    0.0000 C   0  0  0  0  0  0  0  0  0  0  0  0
   17.8009  -19.4132    0.0000 C   0  0  0  0  0  0  0  0  0  0  0  0
   16.6490  -20.0782    0.0000 C   0  0  0  0  0  0  0  0  0  0  0  0
   15.4973  -18.0832    0.0000 C   0  0  0  0  0  0  0  0  0  0  0  0
   15.4973  -19.4132    0.0000 C   0  0  0  0  0  0  0  0  0  0  0  0
   24.9816  -14.3896    0.0000 P   0  0  0  0  0  0  0  0  0  0  0  0
   26.1193  -10.2234    0.0000 S   0  0  0  0  0  0  0  0  0  0  0  0
   24.9816  -17.4182    0.0000 C   0  0  0  0  0  0  0  0  0  0  0  0
   28.7633  -13.2519    0.0000 C   0  0  0  0  0  0  0  0  0  0  0  0
   31.0669  -13.2519    0.0000 C   0  0  0  0  0  0  0  0  0  0  0  0
   31.0669  -14.5819    0.0000 C   0  0  0  0  0  0  0  0  0  0  0  0
   29.9150  -12.5869    0.0000 C   0  0  0  0  0  0  0  0  0  0  0  0
   29.9150  -15.2469    0.0000 C   0  0  0  0  0  0  0  0  0  0  0  0
   28.7633  -14.5819    0.0000 C   0  0  0  0  0  0  0  0  0  0  0  0
   26.1335  -18.0832    0.0000 C   0  0  0  0  0  0  0  0  0  0  0  0
   26.1335  -19.4132    0.0000 C   0  0  0  0  0  0  0  0  0  0  0  0
   24.9816  -20.0782    0.0000 C   0  0  0  0  0  0  0  0  0  0  0  0
   23.8298  -18.0832    0.0000 C   0  0  0  0  0  0  0  0  0  0  0  0
   23.8298  -19.4132    0.0000 C   0  0  0  0  0  0  0  0  0  0  0  0
   14.8988  -10.2682    0.0000 H   0  0  0  0  0  0  0  0  0  0  0  0
   12.8532   -9.0872    0.0000 H   0  0  0  0  0  0  0  0  0  0  0  0
   12.8532  -13.8112    0.0000 H   0  0  0  0  0  0  0  0  0  0  0  0
   10.8077  -10.2682    0.0000 H   0  0  0  0  0  0  0  0  0  0  0  0
   10.8077  -12.6302    0.0000 H   0  0  0  0  0  0  0  0  0  0  0  0
   18.6946  -17.5672    0.0000 H   0  0  0  0  0  0  0  0  0  0  0  0
   18.6946  -19.9292    0.0000 H   0  0  0  0  0  0  0  0  0  0  0  0
   16.6490  -21.1102    0.0000 H   0  0  0  0  0  0  0  0  0  0  0  0
   14.6036  -17.5672    0.0000 H   0  0  0  0  0  0  0  0  0  0  0  0
   14.6036  -19.9292    0.0000 H   0  0  0  0  0  0  0  0  0  0  0  0
   31.9606  -12.7359    0.0000 H   0  0  0  0  0  0  0  0  0  0  0  0
   31.9606  -15.0979    0.0000 H   0  0  0  0  0  0  0  0  0  0  0  0
   29.9150  -11.5549    0.0000 H   0  0  0  0  0  0  0  0  0  0  0  0
   29.9150  -16.2789    0.0000 H   0  0  0  0  0  0  0  0  0  0  0  0
   27.8696  -15.0979    0.0000 H   0  0  0  0  0  0  0  0  0  0  0  0
   27.0272  -17.5672    0.0000 H   0  0  0  0  0  0  0  0  0  0  0  0
   27.0272  -19.9292    0.0000 H   0  0  0  0  0  0  0  0  0  0  0  0
   24.9816  -21.1102    0.0000 H   0  0  0  0  0  0  0  0  0  0  0  0
   22.9361  -17.5672    0.0000 H   0  0  0  0  0  0  0  0  0  0  0  0
   22.9361  -19.9292    0.0000 H   0  0  0  0  0  0  0  0  0  0  0  0
  1  2  1  0  0  0  0
  1  3  2  0  0  0  0
  1  4  1  0  0  0  0
  1  5  1  0  0  0  0
  2  8  2  0  0  0  0
  4 16  1  0  0  0  0
  5 14  1  0  0  0  0
  6  2  1  0  0  0  0
  6  7  2  0  0  0  0
  6 30  1  0  0  0  0
  7  9  1  0  0  0  0
  7 31  1  0  0  0  0
  8 10  1  0  0  0  0
  8 32  1  0  0  0  0
  9 10  2  0  0  0  0
  9 33  1  0  0  0  0
 10 34  1  0  0  0  0
 11 12  1  0  0  0  0
 11  5  2  0  0  0  0
 11 35  1  0  0  0  0
 12 13  2  0  0  0  0
 12 36  1  0  0  0  0
 13 15  1  0  0  0  0
 13 37  1  0  0  0  0
 14 15  2  0  0  0  0
 14 38  1  0  0  0  0
 15 39  1  0  0  0  0
 16 17  2  0  0  0  0
 16 18  1  0  0  0  0
 16 19  1  0  0  0  0
 18 28  1  0  0  0  0
 19 24  2  0  0  0  0
 20 21  1  0  0  0  0
 20 22  2  0  0  0  0
 20 40  1  0  0  0  0
 21 23  2  0  0  0  0
 21 41  1  0  0  0  0
 22 19  1  0  0  0  0
 22 42  1  0  0  0  0
 23 24  1  0  0  0  0
 23 43  1  0  0  0  0
 24 44  1  0  0  0  0
 25 26  1  0  0  0  0
 25 18  2  0  0  0  0
 25 45  1  0  0  0  0
 26 27  2  0  0  0  0
 26 46  1  0  0  0  0
 27 29  1  0  0  0  0
 27 47  1  0  0  0  0
 28 29  2  0  0  0  0
 28 48  1  0  0  0  0
 29 49  1  0  0  0  0
M  END
> <NMREDATA_VERSION>
1.1

> <NMREDATA_LEVEL>
0

> <NMREDATA_FORMULA>
C24H20OP2S2

> <NMREDATA_SMILES>
S=P(c1ccccc1)(c1ccccc1)OP(=S)(c1ccccc1)c1ccccc1

> <NMREDATA_ASSIGNMENT>
P1, 79.00, 1
P16, 79.00, 16

> <NMREDATA_1D_31P>
79.00, L=P1
79.00, L=P16

$$$$
