
 OpenBabel04012508592D

 64 64  0  0  0  0  0  0  0  0999 V2000
   11.8221  -13.2039    0.0000 N   0  0  0  0  0  0  0  0  0  0  0  0
   17.6041  -13.3253    0.0000 P   0  0  3  0  0  0  0  0  0  0  0  0
   17.3593   -9.0813    0.0000 P   0  0  3  0  0  0  0  0  0  0  0  0
   15.5824   -9.0722    0.0000 N   0  0  0  0  0  0  0  0  0  0  0  0
   13.6152   -9.0219    0.0000 P   0  0  3  0  0  0  0  0  0  0  0  0
   13.7083  -11.1628    0.0000 N   0  0  0  0  0  0  0  0  0  0  0  0
   13.7736  -13.1502    0.0000 P   0  0  3  0  0  0  0  0  0  0  0  0
   15.6157  -13.2880    0.0000 N   0  0  0  0  0  0  0  0  0  0  0  0
   17.4696  -11.1657    0.0000 N   0  0  0  0  0  0  0  0  0  0  0  0
   17.7859  -14.9020    0.0000 N   0  0  0  0  0  0  0  0  0  0  0  0
   13.7001  -14.8990    0.0000 N   0  0  0  0  0  0  0  0  0  0  0  0
   17.3824   -7.6435    0.0000 N   0  0  0  0  0  0  0  0  0  0  0  0
   11.7259   -9.1338    0.0000 N   0  0  0  0  0  0  0  0  0  0  0  0
   19.0329   -9.6946    0.0000 N   0  0  0  0  0  0  0  0  0  0  0  0
   12.4668   -6.7622    0.0000 N   0  0  0  0  0  0  0  0  0  0  0  0
   19.4372  -13.3641    0.0000 N   0  0  0  0  0  0  0  0  0  0  0  0
   19.3892  -10.9605    0.0000 C   0  0  0  0  0  0  0  0  0  0  0  0
   19.0847   -6.8102    0.0000 C   0  0  0  0  0  0  0  0  0  0  0  0
   19.1328   -4.9514    0.0000 C   0  0  0  0  0  0  0  0  0  0  0  0
   21.3281  -10.3676    0.0000 C   0  0  0  0  0  0  0  0  0  0  0  0
   19.3251  -15.2710    0.0000 C   0  0  0  0  0  0  0  0  0  0  0  0
   19.8627  -17.0838    0.0000 C   0  0  0  0  0  0  0  0  0  0  0  0
   14.0692  -16.0722    0.0000 C   0  0  0  0  0  0  0  0  0  0  0  0
   12.7909  -17.4655    0.0000 C   0  0  0  0  0  0  0  0  0  0  0  0
   10.7201  -12.3706    0.0000 C   0  0  0  0  0  0  0  0  0  0  0  0
   10.9537  -10.4942    0.0000 C   0  0  0  0  0  0  0  0  0  0  0  0
   10.6721   -7.6595    0.0000 C   0  0  0  0  0  0  0  0  0  0  0  0
    8.8398   -8.6234    0.0000 C   0  0  0  0  0  0  0  0  0  0  0  0
   13.6205   -5.3040    0.0000 C   0  0  0  0  0  0  0  0  0  0  0  0
   12.7231   -4.1502    0.0000 C   0  0  0  0  0  0  0  0  0  0  0  0
   20.8794  -12.7231    0.0000 C   0  0  0  0  0  0  0  0  0  0  0  0
   21.8409  -14.0211    0.0000 C   0  0  0  0  0  0  0  0  0  0  0  0
   18.8946  -11.8662    0.0000 H   0  0  0  0  0  0  0  0  0  0  0  0
   19.9531   -7.3677    0.0000 H   0  0  0  0  0  0  0  0  0  0  0  0
   20.0730   -4.4405    0.0000 H   0  0  0  0  0  0  0  0  0  0  0  0
   18.2203   -4.3926    0.0000 H   0  0  0  0  0  0  0  0  0  0  0  0
   19.1605   -3.8818    0.0000 H   0  0  0  0  0  0  0  0  0  0  0  0
   22.1107  -11.0973    0.0000 H   0  0  0  0  0  0  0  0  0  0  0  0
   21.5687   -9.3250    0.0000 H   0  0  0  0  0  0  0  0  0  0  0  0
   22.3513  -10.0547    0.0000 H   0  0  0  0  0  0  0  0  0  0  0  0
   20.0352  -14.5222    0.0000 H   0  0  0  0  0  0  0  0  0  0  0  0
   19.1264  -17.8602    0.0000 H   0  0  0  0  0  0  0  0  0  0  0  0
   20.9032  -17.3333    0.0000 H   0  0  0  0  0  0  0  0  0  0  0  0
   20.1669  -18.1096    0.0000 H   0  0  0  0  0  0  0  0  0  0  0  0
   15.0766  -16.2962    0.0000 H   0  0  0  0  0  0  0  0  0  0  0  0
   11.7464  -17.2333    0.0000 H   0  0  0  0  0  0  0  0  0  0  0  0
   13.1120  -18.4862    0.0000 H   0  0  0  0  0  0  0  0  0  0  0  0
   12.0675  -18.2539    0.0000 H   0  0  0  0  0  0  0  0  0  0  0  0
    9.7695  -12.7722    0.0000 H   0  0  0  0  0  0  0  0  0  0  0  0
   11.9393  -10.0778    0.0000 H   0  0  0  0  0  0  0  0  0  0  0  0
   10.1002   -9.8488    0.0000 H   0  0  0  0  0  0  0  0  0  0  0  0
   11.0859   -9.4324    0.0000 H   0  0  0  0  0  0  0  0  0  0  0  0
   10.9104   -6.6554    0.0000 H   0  0  0  0  0  0  0  0  0  0  0  0
    7.9349   -8.0524    0.0000 H   0  0  0  0  0  0  0  0  0  0  0  0
    8.7977   -9.6926    0.0000 H   0  0  0  0  0  0  0  0  0  0  0  0
    7.8928   -9.1216    0.0000 H   0  0  0  0  0  0  0  0  0  0  0  0
   14.6525   -5.3083    0.0000 H   0  0  0  0  0  0  0  0  0  0  0  0
   13.1261   -3.1590    0.0000 H   0  0  0  0  0  0  0  0  0  0  0  0
   11.6632   -4.2968    0.0000 H   0  0  0  0  0  0  0  0  0  0  0  0
   12.0662   -3.3056    0.0000 H   0  0  0  0  0  0  0  0  0  0  0  0
   21.1422  -11.7251    0.0000 H   0  0  0  0  0  0  0  0  0  0  0  0
   21.4147  -15.0026    0.0000 H   0  0  0  0  0  0  0  0  0  0  0  0
   22.9040  -13.8994    0.0000 H   0  0  0  0  0  0  0  0  0  0  0  0
   22.4778  -14.8809    0.0000 H   0  0  0  0  0  0  0  0  0  0  0  0
  1  7  1  0  0  0  0
  1 25  2  0  0  0  0
  2  8  1  0  0  0  0
  2  9  2  0  0  0  0
  2 10  1  0  0  0  0
  2 16  1  0  0  0  0
  3  4  2  0  0  0  0
  3 12  1  0  0  0  0
  3 14  1  0  0  0  0
  4  5  1  0  0  0  0
  5  6  2  0  0  0  0
  5 13  1  0  0  0  0
  5 15  1  0  0  0  0
  6  7  1  0  0  0  0
  7  8  2  0  0  0  0
  7 11  1  0  0  0  0
  9  3  1  0  0  0  0
 10 21  2  0  0  0  0
 11 23  2  0  0  0  0
 12 18  2  0  0  0  0
 13 27  2  0  0  0  0
 14 17  2  0  0  0  0
 15 29  2  0  0  0  0
 16 31  2  0  0  0  0
 17 20  1  0  0  0  0
 17 33  1  0  0  0  0
 18 19  1  0  0  0  0
 18 34  1  0  0  0  0
 19 35  1  0  0  0  0
 19 36  1  0  0  0  0
 19 37  1  0  0  0  0
 20 38  1  0  0  0  0
 20 39  1  0  0  0  0
 20 40  1  0  0  0  0
 21 22  1  0  0  0  0
 21 41  1  0  0  0  0
 22 42  1  0  0  0  0
 22 43  1  0  0  0  0
 22 44  1  0  0  0  0
 23 24  1  0  0  0  0
 23 45  1  0  0  0  0
 24 46  1  0  0  0  0
 24 47  1  0  0  0  0
 24 48  1  0  0  0  0
 25 26  1  0  0  0  0
 25 49  1  0  0  0  0
 26 50  1  0  0  0  0
 26 51  1  0  0  0  0
 26 52  1  0  0  0  0
 27 28  1  0  0  0  0
 27 53  1  0  0  0  0
 28 54  1  0  0  0  0
 28 55  1  0  0  0  0
 28 56  1  0  0  0  0
 29 30  1  0  0  0  0
 29 57  1  0  0  0  0
 30 58  1  0  0  0  0
 30 59  1  0  0  0  0
 30 60  1  0  0  0  0
 31 32  1  0  0  0  0
 31 61  1  0  0  0  0
 32 62  1  0  0  0  0
 32 63  1  0  0  0  0
 32 64  1  0  0  0  0
M  END
> <NMREDATA_VERSION>
1.1

> <NMREDATA_LEVEL>
0

> <NMREDATA_FORMULA>
C16H32N12P4

> <NMREDATA_SMILES>
C/C=N\P1(=NP(=NP(=NP(=N1)(/N=C/C)/N=C/C)(/N=C/C)/N=C/C)(/N=C/C)/N=C/C)/N=C/C

> <NMREDATA_ASSIGNMENT>
P2, 17.80, 2
P3, 17.80, 3
P5, 17.80, 5
P7, 17.80, 7

> <NMREDATA_1D_31P>
17.80, L=P2
17.80, L=P3
17.80, L=P5
17.80, L=P7

$$$$
