
 OpenBabel08102311312D

 64 67  0  0  0  0  0  0  0  0999 V2000
    7.2190  -10.2421    0.0000 C   0  0  0  0  0  0  0  0  0  0  0  0
    6.0672   -9.5771    0.0000 C   0  0  0  0  0  0  0  0  0  0  0  0
    4.9154  -10.2421    0.0000 C   0  0  0  0  0  0  0  0  0  0  0  0
    3.7636   -9.5771    0.0000 P   0  0  0  0  0  0  0  0  0  0  0  0
    2.6117  -10.2421    0.0000 C   0  0  0  0  0  0  0  0  0  0  0  0
    3.7636   -8.2471    0.0000 C   0  0  0  0  0  0  0  0  0  0  0  0
   11.8262  -10.2421    0.0000 P   0  0  0  0  0  0  0  0  0  0  0  0
   12.9781   -9.5771    0.0000 C   0  0  0  0  0  0  0  0  0  0  0  0
   11.8262  -11.5721    0.0000 C   0  0  0  0  0  0  0  0  0  0  0  0
   10.6744   -9.5771    0.0000 C   0  0  0  0  0  0  0  0  0  0  0  0
    9.5226  -10.2421    0.0000 C   0  0  0  0  0  0  0  0  0  0  0  0
    8.3708   -9.5771    0.0000 C   0  0  0  0  0  0  0  0  0  0  0  0
    2.6117  -11.5721    0.0000 C   0  0  0  0  0  0  0  0  0  0  0  0
    1.4599  -12.2371    0.0000 C   0  0  0  0  0  0  0  0  0  0  0  0
    0.3081  -11.5721    0.0000 C   0  0  0  0  0  0  0  0  0  0  0  0
    0.3081  -10.2421    0.0000 C   0  0  0  0  0  0  0  0  0  0  0  0
    1.4599   -9.5771    0.0000 C   0  0  0  0  0  0  0  0  0  0  0  0
    2.6117   -7.5821    0.0000 C   0  0  0  0  0  0  0  0  0  0  0  0
    2.6117   -6.2521    0.0000 C   0  0  0  0  0  0  0  0  0  0  0  0
    3.7635   -5.5871    0.0000 C   0  0  0  0  0  0  0  0  0  0  0  0
    4.9154   -6.2521    0.0000 C   0  0  0  0  0  0  0  0  0  0  0  0
    4.9154   -7.5821    0.0000 C   0  0  0  0  0  0  0  0  0  0  0  0
   12.9781   -8.2471    0.0000 C   0  0  0  0  0  0  0  0  0  0  0  0
   14.1299   -7.5821    0.0000 C   0  0  0  0  0  0  0  0  0  0  0  0
   15.2817   -8.2471    0.0000 C   0  0  0  0  0  0  0  0  0  0  0  0
   15.2817   -9.5771    0.0000 C   0  0  0  0  0  0  0  0  0  0  0  0
   14.1299  -10.2421    0.0000 C   0  0  0  0  0  0  0  0  0  0  0  0
   12.9781  -12.2371    0.0000 C   0  0  0  0  0  0  0  0  0  0  0  0
   12.9781  -13.5671    0.0000 C   0  0  0  0  0  0  0  0  0  0  0  0
   11.8263  -14.2321    0.0000 C   0  0  0  0  0  0  0  0  0  0  0  0
   10.6744  -13.5671    0.0000 C   0  0  0  0  0  0  0  0  0  0  0  0
   10.6744  -12.2371    0.0000 C   0  0  0  0  0  0  0  0  0  0  0  0
    7.2190  -11.3121    0.0000 H   0  0  0  0  0  0  0  0  0  0  0  0
    8.1456  -10.7771    0.0000 H   0  0  0  0  0  0  0  0  0  0  0  0
    6.0672   -8.5071    0.0000 H   0  0  0  0  0  0  0  0  0  0  0  0
    5.1406   -9.0421    0.0000 H   0  0  0  0  0  0  0  0  0  0  0  0
    4.9154  -11.3121    0.0000 H   0  0  0  0  0  0  0  0  0  0  0  0
    3.9888  -10.7771    0.0000 H   0  0  0  0  0  0  0  0  0  0  0  0
   10.6744   -8.5071    0.0000 H   0  0  0  0  0  0  0  0  0  0  0  0
    9.7478   -9.0421    0.0000 H   0  0  0  0  0  0  0  0  0  0  0  0
    9.5226  -11.3121    0.0000 H   0  0  0  0  0  0  0  0  0  0  0  0
    8.5960  -10.7771    0.0000 H   0  0  0  0  0  0  0  0  0  0  0  0
    8.3708   -8.5071    0.0000 H   0  0  0  0  0  0  0  0  0  0  0  0
    7.4442   -9.0421    0.0000 H   0  0  0  0  0  0  0  0  0  0  0  0
    3.5054  -12.0881    0.0000 H   0  0  0  0  0  0  0  0  0  0  0  0
    1.4599  -13.2691    0.0000 H   0  0  0  0  0  0  0  0  0  0  0  0
   -0.5856  -12.0881    0.0000 H   0  0  0  0  0  0  0  0  0  0  0  0
   -0.5856   -9.7261    0.0000 H   0  0  0  0  0  0  0  0  0  0  0  0
    1.4599   -8.5451    0.0000 H   0  0  0  0  0  0  0  0  0  0  0  0
    1.7180   -8.0981    0.0000 H   0  0  0  0  0  0  0  0  0  0  0  0
    1.7180   -5.7361    0.0000 H   0  0  0  0  0  0  0  0  0  0  0  0
    3.7635   -4.5551    0.0000 H   0  0  0  0  0  0  0  0  0  0  0  0
    5.8091   -5.7361    0.0000 H   0  0  0  0  0  0  0  0  0  0  0  0
    5.8091   -8.0981    0.0000 H   0  0  0  0  0  0  0  0  0  0  0  0
   12.0844   -7.7311    0.0000 H   0  0  0  0  0  0  0  0  0  0  0  0
   14.1299   -6.5501    0.0000 H   0  0  0  0  0  0  0  0  0  0  0  0
   16.1754   -7.7311    0.0000 H   0  0  0  0  0  0  0  0  0  0  0  0
   16.1754  -10.0931    0.0000 H   0  0  0  0  0  0  0  0  0  0  0  0
   14.1299  -11.2741    0.0000 H   0  0  0  0  0  0  0  0  0  0  0  0
   13.8718  -11.7211    0.0000 H   0  0  0  0  0  0  0  0  0  0  0  0
   13.8718  -14.0831    0.0000 H   0  0  0  0  0  0  0  0  0  0  0  0
   11.8263  -15.2641    0.0000 H   0  0  0  0  0  0  0  0  0  0  0  0
    9.7807  -14.0831    0.0000 H   0  0  0  0  0  0  0  0  0  0  0  0
    9.7807  -11.7211    0.0000 H   0  0  0  0  0  0  0  0  0  0  0  0
  1 12  1  0  0  0  0
  1 33  1  0  0  0  0
  1 34  1  0  0  0  0
  2  1  1  0  0  0  0
  2 35  1  0  0  0  0
  2 36  1  0  0  0  0
  3  2  1  0  0  0  0
  3 37  1  0  0  0  0
  3 38  1  0  0  0  0
  4  3  1  0  0  0  0
  4  5  1  0  0  0  0
  4  6  1  0  0  0  0
  5 13  2  0  0  0  0
  5 17  1  0  0  0  0
  6 18  2  0  0  0  0
  6 22  1  0  0  0  0
  7  8  1  0  0  0  0
  7  9  1  0  0  0  0
  8 23  2  0  0  0  0
  8 27  1  0  0  0  0
  9 28  2  0  0  0  0
  9 32  1  0  0  0  0
 10  7  1  0  0  0  0
 10 39  1  0  0  0  0
 10 40  1  0  0  0  0
 11 10  1  0  0  0  0
 11 41  1  0  0  0  0
 11 42  1  0  0  0  0
 12 11  1  0  0  0  0
 12 43  1  0  0  0  0
 12 44  1  0  0  0  0
 13 14  1  0  0  0  0
 13 45  1  0  0  0  0
 14 15  2  0  0  0  0
 14 46  1  0  0  0  0
 15 16  1  0  0  0  0
 15 47  1  0  0  0  0
 16 17  2  0  0  0  0
 16 48  1  0  0  0  0
 17 49  1  0  0  0  0
 18 19  1  0  0  0  0
 18 50  1  0  0  0  0
 19 20  2  0  0  0  0
 19 51  1  0  0  0  0
 20 21  1  0  0  0  0
 20 52  1  0  0  0  0
 21 22  2  0  0  0  0
 21 53  1  0  0  0  0
 22 54  1  0  0  0  0
 23 24  1  0  0  0  0
 23 55  1  0  0  0  0
 24 25  2  0  0  0  0
 24 56  1  0  0  0  0
 25 26  1  0  0  0  0
 25 57  1  0  0  0  0
 26 27  2  0  0  0  0
 26 58  1  0  0  0  0
 27 59  1  0  0  0  0
 28 29  1  0  0  0  0
 28 60  1  0  0  0  0
 29 30  2  0  0  0  0
 29 61  1  0  0  0  0
 30 31  1  0  0  0  0
 30 62  1  0  0  0  0
 31 32  2  0  0  0  0
 31 63  1  0  0  0  0
 32 64  1  0  0  0  0
M  END
> <NMREDATA_VERSION>
1.1

> <NMREDATA_LEVEL>
0

> <NMREDATA_FORMULA>
C30H32P2

> <NMREDATA_SMILES>
C(CCP(c1ccccc1)c1ccccc1)CCCP(c1ccccc1)c1ccccc1

> <NMREDATA_ASSIGNMENT>
P4, -18.20, 4
P7, -18.20, 7

> <NMREDATA_1D_31P>
-18.20, L=P4
-18.20, L=P7

$$$$
