
 OpenBabel08102311302D

 69 69  0  0  0  0  0  0  0  0999 V2000
   28.3059  -21.8251    0.0000 P   0  0  3  0  0  0  0  0  0  0  0  0
   27.1353  -20.8754    0.0000 O   0  0  0  0  0  0  0  0  0  0  0  0
   28.0688  -23.3136    0.0000 N   0  0  0  0  0  0  0  0  0  0  0  0
   26.6611  -23.8525    0.0000 C   0  0  0  0  0  0  0  0  0  0  0  0
   26.4239  -25.3411    0.0000 C   0  0  0  0  0  0  0  0  0  0  0  0
   25.4905  -22.9029    0.0000 C   0  0  0  0  0  0  0  0  0  0  0  0
   29.2393  -24.2633    0.0000 C   0  0  0  0  0  0  0  0  0  0  0  0
   30.6470  -23.7243    0.0000 C   0  0  0  0  0  0  0  0  0  0  0  0
   29.0022  -25.7518    0.0000 C   0  0  0  0  0  0  0  0  0  0  0  0
   29.9507  -19.7976    0.0000 P   0  0  3  0  0  0  0  0  0  0  0  0
   29.7136  -21.2861    0.0000 O   0  0  0  0  0  0  0  0  0  0  0  0
   31.3584  -19.2586    0.0000 N   0  0  0  0  0  0  0  0  0  0  0  0
   32.5290  -20.2083    0.0000 C   0  0  0  0  0  0  0  0  0  0  0  0
   33.9367  -19.6694    0.0000 C   0  0  0  0  0  0  0  0  0  0  0  0
   32.2919  -21.6969    0.0000 C   0  0  0  0  0  0  0  0  0  0  0  0
   31.5955  -17.7701    0.0000 C   0  0  0  0  0  0  0  0  0  0  0  0
   30.4250  -16.8204    0.0000 C   0  0  0  0  0  0  0  0  0  0  0  0
   33.0032  -17.2312    0.0000 C   0  0  0  0  0  0  0  0  0  0  0  0
   27.3725  -19.3868    0.0000 P   0  0  3  0  0  0  0  0  0  0  0  0
   28.7802  -18.8479    0.0000 O   0  0  0  0  0  0  0  0  0  0  0  0
   26.2019  -18.4372    0.0000 N   0  0  0  0  0  0  0  0  0  0  0  0
   26.4390  -16.9486    0.0000 C   0  0  0  0  0  0  0  0  0  0  0  0
   25.2641  -15.9954    0.0000 C   0  0  0  0  0  0  0  0  0  0  0  0
   27.8467  -16.4097    0.0000 C   0  0  0  0  0  0  0  0  0  0  0  0
   24.7942  -18.9761    0.0000 C   0  0  0  0  0  0  0  0  0  0  0  0
   24.5571  -20.4647    0.0000 C   0  0  0  0  0  0  0  0  0  0  0  0
   23.6236  -18.0265    0.0000 C   0  0  0  0  0  0  0  0  0  0  0  0
   26.8294  -22.7958    0.0000 H   0  0  0  0  0  0  0  0  0  0  0  0
   25.4246  -25.7236    0.0000 H   0  0  0  0  0  0  0  0  0  0  0  0
   27.2548  -26.0153    0.0000 H   0  0  0  0  0  0  0  0  0  0  0  0
   26.2555  -26.3978    0.0000 H   0  0  0  0  0  0  0  0  0  0  0  0
   25.6588  -21.8462    0.0000 H   0  0  0  0  0  0  0  0  0  0  0  0
   24.4912  -23.2855    0.0000 H   0  0  0  0  0  0  0  0  0  0  0  0
   24.6595  -22.2288    0.0000 H   0  0  0  0  0  0  0  0  0  0  0  0
   28.2400  -24.6458    0.0000 H   0  0  0  0  0  0  0  0  0  0  0  0
   31.4780  -24.3984    0.0000 H   0  0  0  0  0  0  0  0  0  0  0  0
   30.8153  -22.6676    0.0000 H   0  0  0  0  0  0  0  0  0  0  0  0
   31.6463  -23.3417    0.0000 H   0  0  0  0  0  0  0  0  0  0  0  0
   28.0029  -26.1344    0.0000 H   0  0  0  0  0  0  0  0  0  0  0  0
   29.8332  -26.4259    0.0000 H   0  0  0  0  0  0  0  0  0  0  0  0
   28.8339  -26.8085    0.0000 H   0  0  0  0  0  0  0  0  0  0  0  0
   31.5297  -20.5909    0.0000 H   0  0  0  0  0  0  0  0  0  0  0  0
   34.7676  -20.3435    0.0000 H   0  0  0  0  0  0  0  0  0  0  0  0
   34.1050  -18.6127    0.0000 H   0  0  0  0  0  0  0  0  0  0  0  0
   34.9360  -19.2869    0.0000 H   0  0  0  0  0  0  0  0  0  0  0  0
   31.2926  -22.0795    0.0000 H   0  0  0  0  0  0  0  0  0  0  0  0
   33.1229  -22.3710    0.0000 H   0  0  0  0  0  0  0  0  0  0  0  0
   32.1236  -22.7536    0.0000 H   0  0  0  0  0  0  0  0  0  0  0  0
   32.4264  -18.4442    0.0000 H   0  0  0  0  0  0  0  0  0  0  0  0
   30.5934  -15.7637    0.0000 H   0  0  0  0  0  0  0  0  0  0  0  0
   29.4257  -17.2029    0.0000 H   0  0  0  0  0  0  0  0  0  0  0  0
   29.5941  -16.1462    0.0000 H   0  0  0  0  0  0  0  0  0  0  0  0
   33.8341  -17.9053    0.0000 H   0  0  0  0  0  0  0  0  0  0  0  0
   33.1715  -16.1745    0.0000 H   0  0  0  0  0  0  0  0  0  0  0  0
   34.0025  -16.8487    0.0000 H   0  0  0  0  0  0  0  0  0  0  0  0
   27.2699  -17.6227    0.0000 H   0  0  0  0  0  0  0  0  0  0  0  0
   25.4325  -14.9387    0.0000 H   0  0  0  0  0  0  0  0  0  0  0  0
   24.2648  -16.3779    0.0000 H   0  0  0  0  0  0  0  0  0  0  0  0
   24.4332  -15.3213    0.0000 H   0  0  0  0  0  0  0  0  0  0  0  0
   28.6776  -17.0838    0.0000 H   0  0  0  0  0  0  0  0  0  0  0  0
   28.0150  -15.3530    0.0000 H   0  0  0  0  0  0  0  0  0  0  0  0
   28.8460  -16.0272    0.0000 H   0  0  0  0  0  0  0  0  0  0  0  0
   24.9625  -17.9194    0.0000 H   0  0  0  0  0  0  0  0  0  0  0  0
   23.5578  -20.8473    0.0000 H   0  0  0  0  0  0  0  0  0  0  0  0
   25.3881  -21.1388    0.0000 H   0  0  0  0  0  0  0  0  0  0  0  0
   24.3888  -21.5214    0.0000 H   0  0  0  0  0  0  0  0  0  0  0  0
   23.7919  -16.9698    0.0000 H   0  0  0  0  0  0  0  0  0  0  0  0
   22.6243  -18.4091    0.0000 H   0  0  0  0  0  0  0  0  0  0  0  0
   22.7926  -17.3524    0.0000 H   0  0  0  0  0  0  0  0  0  0  0  0
  1  2  1  0  0  0  0
  1  3  1  0  0  0  0
  1 11  1  0  0  0  0
  3  4  1  0  0  0  0
  3  7  1  0  0  0  0
  4  5  1  0  0  0  0
  4  6  1  0  0  0  0
  4 28  1  0  0  0  0
  5 29  1  0  0  0  0
  5 30  1  0  0  0  0
  5 31  1  0  0  0  0
  6 32  1  0  0  0  0
  6 33  1  0  0  0  0
  6 34  1  0  0  0  0
  7  8  1  0  0  0  0
  7  9  1  0  0  0  0
  7 35  1  0  0  0  0
  8 36  1  0  0  0  0
  8 37  1  0  0  0  0
  8 38  1  0  0  0  0
  9 39  1  0  0  0  0
  9 40  1  0  0  0  0
  9 41  1  0  0  0  0
 10 11  1  0  0  0  0
 10 12  1  0  0  0  0
 10 20  1  0  0  0  0
 12 13  1  0  0  0  0
 12 16  1  0  0  0  0
 13 14  1  0  0  0  0
 13 15  1  0  0  0  0
 13 42  1  0  0  0  0
 14 43  1  0  0  0  0
 14 44  1  0  0  0  0
 14 45  1  0  0  0  0
 15 46  1  0  0  0  0
 15 47  1  0  0  0  0
 15 48  1  0  0  0  0
 16 17  1  0  0  0  0
 16 18  1  0  0  0  0
 16 49  1  0  0  0  0
 17 50  1  0  0  0  0
 17 51  1  0  0  0  0
 17 52  1  0  0  0  0
 18 53  1  0  0  0  0
 18 54  1  0  0  0  0
 18 55  1  0  0  0  0
 19 20  1  0  0  0  0
 19 21  1  0  0  0  0
 19  2  1  0  0  0  0
 21 22  1  0  0  0  0
 21 25  1  0  0  0  0
 22 23  1  0  0  0  0
 22 24  1  0  0  0  0
 22 56  1  0  0  0  0
 23 57  1  0  0  0  0
 23 58  1  0  0  0  0
 23 59  1  0  0  0  0
 24 60  1  0  0  0  0
 24 61  1  0  0  0  0
 24 62  1  0  0  0  0
 25 26  1  0  0  0  0
 25 27  1  0  0  0  0
 25 63  1  0  0  0  0
 26 64  1  0  0  0  0
 26 65  1  0  0  0  0
 26 66  1  0  0  0  0
 27 67  1  0  0  0  0
 27 68  1  0  0  0  0
 27 69  1  0  0  0  0
M  END
> <NMREDATA_VERSION>
1.1

> <NMREDATA_LEVEL>
0

> <NMREDATA_FORMULA>
C18H42N3O3P3

> <NMREDATA_SMILES>
CC(N(P1OP(OP(O1)N(C(C)C)C(C)C)N(C(C)C)C(C)C)C(C)C)C

> <NMREDATA_ASSIGNMENT>
P1, 140.30, 1
P10, 140.30, 10
P19, 140.30, 19

> <NMREDATA_1D_31P>
140.30, L=P1
140.30, L=P10
140.30, L=P19

$$$$
