
 OpenBabel08102311312D

 85 88  0  0  0  0  0  0  0  0999 V2000
    4.9118   -8.1467    0.0000 C   0  0  0  0  0  0  0  0  0  0  0  0
    3.7600   -7.4817    0.0000 P   0  0  0  0  0  0  0  0  0  0  0  0
    3.7600   -6.1517    0.0000 C   0  0  0  0  0  0  0  0  0  0  0  0
    2.6082   -8.1467    0.0000 C   0  0  0  0  0  0  0  0  0  0  0  0
    6.0636   -7.4817    0.0000 C   0  0  0  0  0  0  0  0  0  0  0  0
    7.2154   -8.1467    0.0000 C   0  0  0  0  0  0  0  0  0  0  0  0
    8.3672   -7.4817    0.0000 C   0  0  0  0  0  0  0  0  0  0  0  0
    9.5190   -8.1467    0.0000 C   0  0  0  0  0  0  0  0  0  0  0  0
   10.6709   -7.4817    0.0000 C   0  0  0  0  0  0  0  0  0  0  0  0
   11.8227   -8.1467    0.0000 C   0  0  0  0  0  0  0  0  0  0  0  0
   12.9745   -7.4817    0.0000 C   0  0  0  0  0  0  0  0  0  0  0  0
   14.1263   -8.1467    0.0000 C   0  0  0  0  0  0  0  0  0  0  0  0
   15.2781   -7.4817    0.0000 C   0  0  0  0  0  0  0  0  0  0  0  0
   16.4299   -8.1467    0.0000 C   0  0  0  0  0  0  0  0  0  0  0  0
   17.5817   -7.4817    0.0000 C   0  0  0  0  0  0  0  0  0  0  0  0
   18.7336   -8.1467    0.0000 C   0  0  0  0  0  0  0  0  0  0  0  0
   19.8854   -7.4817    0.0000 P   0  0  0  0  0  0  0  0  0  0  0  0
   19.8854   -6.1517    0.0000 C   0  0  0  0  0  0  0  0  0  0  0  0
   21.0372   -8.1467    0.0000 C   0  0  0  0  0  0  0  0  0  0  0  0
    2.6082   -5.4867    0.0000 C   0  0  0  0  0  0  0  0  0  0  0  0
    2.6082   -4.1567    0.0000 C   0  0  0  0  0  0  0  0  0  0  0  0
    3.7600   -3.4917    0.0000 C   0  0  0  0  0  0  0  0  0  0  0  0
    4.9118   -4.1567    0.0000 C   0  0  0  0  0  0  0  0  0  0  0  0
    4.9118   -5.4867    0.0000 C   0  0  0  0  0  0  0  0  0  0  0  0
    2.6082   -9.4767    0.0000 C   0  0  0  0  0  0  0  0  0  0  0  0
    1.4564  -10.1417    0.0000 C   0  0  0  0  0  0  0  0  0  0  0  0
    0.3045   -9.4767    0.0000 C   0  0  0  0  0  0  0  0  0  0  0  0
    0.3045   -8.1467    0.0000 C   0  0  0  0  0  0  0  0  0  0  0  0
    1.4563   -7.4817    0.0000 C   0  0  0  0  0  0  0  0  0  0  0  0
   18.7336   -5.4867    0.0000 C   0  0  0  0  0  0  0  0  0  0  0  0
   18.7336   -4.1567    0.0000 C   0  0  0  0  0  0  0  0  0  0  0  0
   19.8854   -3.4917    0.0000 C   0  0  0  0  0  0  0  0  0  0  0  0
   21.0372   -4.1567    0.0000 C   0  0  0  0  0  0  0  0  0  0  0  0
   21.0372   -5.4867    0.0000 C   0  0  0  0  0  0  0  0  0  0  0  0
   21.0372   -9.4767    0.0000 C   0  0  0  0  0  0  0  0  0  0  0  0
   22.1890  -10.1417    0.0000 C   0  0  0  0  0  0  0  0  0  0  0  0
   23.3408   -9.4767    0.0000 C   0  0  0  0  0  0  0  0  0  0  0  0
   23.3408   -8.1466    0.0000 C   0  0  0  0  0  0  0  0  0  0  0  0
   22.1890   -7.4817    0.0000 C   0  0  0  0  0  0  0  0  0  0  0  0
    4.9118   -9.2167    0.0000 H   0  0  0  0  0  0  0  0  0  0  0  0
    5.8384   -8.6817    0.0000 H   0  0  0  0  0  0  0  0  0  0  0  0
    6.0636   -6.4117    0.0000 H   0  0  0  0  0  0  0  0  0  0  0  0
    6.9902   -6.9467    0.0000 H   0  0  0  0  0  0  0  0  0  0  0  0
    7.2154   -9.2167    0.0000 H   0  0  0  0  0  0  0  0  0  0  0  0
    8.1420   -8.6817    0.0000 H   0  0  0  0  0  0  0  0  0  0  0  0
    8.3672   -6.4117    0.0000 H   0  0  0  0  0  0  0  0  0  0  0  0
    9.2938   -6.9467    0.0000 H   0  0  0  0  0  0  0  0  0  0  0  0
    9.5190   -9.2167    0.0000 H   0  0  0  0  0  0  0  0  0  0  0  0
   10.4456   -8.6817    0.0000 H   0  0  0  0  0  0  0  0  0  0  0  0
   10.6709   -6.4117    0.0000 H   0  0  0  0  0  0  0  0  0  0  0  0
   11.5976   -6.9467    0.0000 H   0  0  0  0  0  0  0  0  0  0  0  0
   11.8227   -9.2167    0.0000 H   0  0  0  0  0  0  0  0  0  0  0  0
   12.7493   -8.6817    0.0000 H   0  0  0  0  0  0  0  0  0  0  0  0
   12.9745   -6.4117    0.0000 H   0  0  0  0  0  0  0  0  0  0  0  0
   13.9011   -6.9467    0.0000 H   0  0  0  0  0  0  0  0  0  0  0  0
   14.1263   -9.2167    0.0000 H   0  0  0  0  0  0  0  0  0  0  0  0
   15.0529   -8.6817    0.0000 H   0  0  0  0  0  0  0  0  0  0  0  0
   15.2781   -6.4117    0.0000 H   0  0  0  0  0  0  0  0  0  0  0  0
   16.2047   -6.9467    0.0000 H   0  0  0  0  0  0  0  0  0  0  0  0
   16.4299   -9.2167    0.0000 H   0  0  0  0  0  0  0  0  0  0  0  0
   17.3565   -8.6817    0.0000 H   0  0  0  0  0  0  0  0  0  0  0  0
   17.5817   -6.4117    0.0000 H   0  0  0  0  0  0  0  0  0  0  0  0
   18.5083   -6.9467    0.0000 H   0  0  0  0  0  0  0  0  0  0  0  0
   18.7336   -9.2167    0.0000 H   0  0  0  0  0  0  0  0  0  0  0  0
   19.6603   -8.6817    0.0000 H   0  0  0  0  0  0  0  0  0  0  0  0
    1.7145   -6.0027    0.0000 H   0  0  0  0  0  0  0  0  0  0  0  0
    1.7145   -3.6407    0.0000 H   0  0  0  0  0  0  0  0  0  0  0  0
    3.7600   -2.4597    0.0000 H   0  0  0  0  0  0  0  0  0  0  0  0
    5.8055   -3.6407    0.0000 H   0  0  0  0  0  0  0  0  0  0  0  0
    5.8055   -6.0027    0.0000 H   0  0  0  0  0  0  0  0  0  0  0  0
    3.5019   -9.9927    0.0000 H   0  0  0  0  0  0  0  0  0  0  0  0
    1.4564  -11.1737    0.0000 H   0  0  0  0  0  0  0  0  0  0  0  0
   -0.5892   -9.9927    0.0000 H   0  0  0  0  0  0  0  0  0  0  0  0
   -0.5892   -7.6307    0.0000 H   0  0  0  0  0  0  0  0  0  0  0  0
    1.4563   -6.4497    0.0000 H   0  0  0  0  0  0  0  0  0  0  0  0
   17.8399   -6.0027    0.0000 H   0  0  0  0  0  0  0  0  0  0  0  0
   17.8399   -3.6407    0.0000 H   0  0  0  0  0  0  0  0  0  0  0  0
   19.8854   -2.4597    0.0000 H   0  0  0  0  0  0  0  0  0  0  0  0
   21.9309   -3.6407    0.0000 H   0  0  0  0  0  0  0  0  0  0  0  0
   21.9309   -6.0027    0.0000 H   0  0  0  0  0  0  0  0  0  0  0  0
   20.1435   -9.9927    0.0000 H   0  0  0  0  0  0  0  0  0  0  0  0
   22.1890  -11.1737    0.0000 H   0  0  0  0  0  0  0  0  0  0  0  0
   24.2345   -9.9927    0.0000 H   0  0  0  0  0  0  0  0  0  0  0  0
   24.2345   -7.6306    0.0000 H   0  0  0  0  0  0  0  0  0  0  0  0
   22.1890   -6.4497    0.0000 H   0  0  0  0  0  0  0  0  0  0  0  0
  1  5  1  0  0  0  0
  1 40  1  0  0  0  0
  1 41  1  0  0  0  0
  2  1  1  0  0  0  0
  2  3  1  0  0  0  0
  3 20  2  0  0  0  0
  3 24  1  0  0  0  0
  4  2  1  0  0  0  0
  4 25  2  0  0  0  0
  4 29  1  0  0  0  0
  5  6  1  0  0  0  0
  5 42  1  0  0  0  0
  5 43  1  0  0  0  0
  6  7  1  0  0  0  0
  6 44  1  0  0  0  0
  6 45  1  0  0  0  0
  7  8  1  0  0  0  0
  7 46  1  0  0  0  0
  7 47  1  0  0  0  0
  8  9  1  0  0  0  0
  8 48  1  0  0  0  0
  8 49  1  0  0  0  0
  9 10  1  0  0  0  0
  9 50  1  0  0  0  0
  9 51  1  0  0  0  0
 10 11  1  0  0  0  0
 10 52  1  0  0  0  0
 10 53  1  0  0  0  0
 11 12  1  0  0  0  0
 11 54  1  0  0  0  0
 11 55  1  0  0  0  0
 12 13  1  0  0  0  0
 12 56  1  0  0  0  0
 12 57  1  0  0  0  0
 13 14  1  0  0  0  0
 13 58  1  0  0  0  0
 13 59  1  0  0  0  0
 14 15  1  0  0  0  0
 14 60  1  0  0  0  0
 14 61  1  0  0  0  0
 15 16  1  0  0  0  0
 15 62  1  0  0  0  0
 15 63  1  0  0  0  0
 16 17  1  0  0  0  0
 16 64  1  0  0  0  0
 16 65  1  0  0  0  0
 17 18  1  0  0  0  0
 17 19  1  0  0  0  0
 18 30  2  0  0  0  0
 18 34  1  0  0  0  0
 19 35  2  0  0  0  0
 19 39  1  0  0  0  0
 20 21  1  0  0  0  0
 20 66  1  0  0  0  0
 21 22  2  0  0  0  0
 21 67  1  0  0  0  0
 22 23  1  0  0  0  0
 22 68  1  0  0  0  0
 23 24  2  0  0  0  0
 23 69  1  0  0  0  0
 24 70  1  0  0  0  0
 25 26  1  0  0  0  0
 25 71  1  0  0  0  0
 26 27  2  0  0  0  0
 26 72  1  0  0  0  0
 27 28  1  0  0  0  0
 27 73  1  0  0  0  0
 28 29  2  0  0  0  0
 28 74  1  0  0  0  0
 29 75  1  0  0  0  0
 30 31  1  0  0  0  0
 30 76  1  0  0  0  0
 31 32  2  0  0  0  0
 31 77  1  0  0  0  0
 32 33  1  0  0  0  0
 32 78  1  0  0  0  0
 33 34  2  0  0  0  0
 33 79  1  0  0  0  0
 34 80  1  0  0  0  0
 35 36  1  0  0  0  0
 35 81  1  0  0  0  0
 36 37  2  0  0  0  0
 36 82  1  0  0  0  0
 37 38  1  0  0  0  0
 37 83  1  0  0  0  0
 38 39  2  0  0  0  0
 38 84  1  0  0  0  0
 39 85  1  0  0  0  0
M  END
> <NMREDATA_VERSION>
1.1

> <NMREDATA_LEVEL>
0

> <NMREDATA_FORMULA>
C37H46P2

> <NMREDATA_SMILES>
C(CCCCCCP(c1ccccc1)c1ccccc1)CCCCCCP(c1ccccc1)c1ccccc1

> <NMREDATA_ASSIGNMENT>
P2, -15.50, 2
P17, -15.50, 17

> <NMREDATA_1D_31P>
-15.50, L=P2
-15.50, L=P17

$$$$
