
 OpenBabel08102311352D

 42 45  0  0  0  0  0  0  0  0999 V2000
    9.2139   -9.6145    0.0000 P   0  0  0  0  0  0  0  0  0  0  0  0
    8.0601   -9.0216    0.0000 O   0  0  0  0  0  0  0  0  0  0  0  0
    9.2139   -8.2684    0.0000 O   0  0  0  0  0  0  0  0  0  0  0  0
    7.7076   -7.9480    0.0000 C   0  0  0  0  0  0  0  0  0  0  0  0
    8.4607   -7.5153    0.0000 C   0  0  0  0  0  0  0  0  0  0  0  0
   10.0151   -8.6210    0.0000 O   0  0  0  0  0  0  0  0  0  0  0  0
    8.5729  -10.6560    0.0000 O   0  0  0  0  0  0  0  0  0  0  0  0
   10.3676  -10.3676    0.0000 O   0  0  0  0  0  0  0  0  0  0  0  0
    9.1818  -11.6495    0.0000 C   0  0  0  0  0  0  0  0  0  0  0  0
   10.3355  -11.6175    0.0000 C   0  0  0  0  0  0  0  0  0  0  0  0
   11.1866   -8.8940    0.0000 C   0  0  0  0  0  0  0  0  0  0  0  0
   11.8098   -8.1563    0.0000 C   0  0  0  0  0  0  0  0  0  0  0  0
   13.0757   -8.3646    0.0000 O   0  0  0  0  0  0  0  0  0  0  0  0
   14.1172   -8.0121    0.0000 P   0  0  0  0  0  0  0  0  0  0  0  0
   13.6205   -6.7622    0.0000 O   0  0  0  0  0  0  0  0  0  0  0  0
   15.0306   -7.0186    0.0000 O   0  0  0  0  0  0  0  0  0  0  0  0
   15.1268   -8.4127    0.0000 O   0  0  0  0  0  0  0  0  0  0  0  0
   14.1172   -9.0696    0.0000 O   0  0  0  0  0  0  0  0  0  0  0  0
   14.1172   -5.6565    0.0000 C   0  0  0  0  0  0  0  0  0  0  0  0
   15.2710   -5.7527    0.0000 C   0  0  0  0  0  0  0  0  0  0  0  0
   15.7196   -9.6625    0.0000 C   0  0  0  0  0  0  0  0  0  0  0  0
   14.8223   -9.9670    0.0000 C   0  0  0  0  0  0  0  0  0  0  0  0
    6.7085   -7.5650    0.0000 H   0  0  0  0  0  0  0  0  0  0  0  0
    7.6245   -6.8812    0.0000 H   0  0  0  0  0  0  0  0  0  0  0  0
    8.6014   -6.4546    0.0000 H   0  0  0  0  0  0  0  0  0  0  0  0
    9.4741   -7.1718    0.0000 H   0  0  0  0  0  0  0  0  0  0  0  0
    8.6720  -12.5902    0.0000 H   0  0  0  0  0  0  0  0  0  0  0  0
    9.7419  -12.5612    0.0000 H   0  0  0  0  0  0  0  0  0  0  0  0
   11.0929  -12.3733    0.0000 H   0  0  0  0  0  0  0  0  0  0  0  0
    9.9403  -12.6118    0.0000 H   0  0  0  0  0  0  0  0  0  0  0  0
   11.5234   -9.9096    0.0000 H   0  0  0  0  0  0  0  0  0  0  0  0
   12.2372   -9.0967    0.0000 H   0  0  0  0  0  0  0  0  0  0  0  0
   11.4398   -7.1523    0.0000 H   0  0  0  0  0  0  0  0  0  0  0  0
   12.4912   -7.3313    0.0000 H   0  0  0  0  0  0  0  0  0  0  0  0
   13.5738   -4.7348    0.0000 H   0  0  0  0  0  0  0  0  0  0  0  0
   14.6861   -4.7503    0.0000 H   0  0  0  0  0  0  0  0  0  0  0  0
   16.1228   -5.1052    0.0000 H   0  0  0  0  0  0  0  0  0  0  0  0
   16.1808   -6.3158    0.0000 H   0  0  0  0  0  0  0  0  0  0  0  0
   16.7050  -10.0795    0.0000 H   0  0  0  0  0  0  0  0  0  0  0  0
   15.6804  -10.7318    0.0000 H   0  0  0  0  0  0  0  0  0  0  0  0
   14.5175  -10.9927    0.0000 H   0  0  0  0  0  0  0  0  0  0  0  0
   13.7713  -10.1676    0.0000 H   0  0  0  0  0  0  0  0  0  0  0  0
  1  2  1  0  0  0  0
  1  3  1  0  0  0  0
  1  6  1  0  0  0  0
  1  7  1  0  0  0  0
  1  8  1  0  0  0  0
  2  4  1  0  0  0  0
  4  5  1  0  0  0  0
  4 23  1  0  0  0  0
  4 24  1  0  0  0  0
  5  3  1  0  0  0  0
  5 25  1  0  0  0  0
  5 26  1  0  0  0  0
  6 11  1  0  0  0  0
  7  9  1  0  0  0  0
  9 10  1  0  0  0  0
  9 27  1  0  0  0  0
  9 28  1  0  0  0  0
 10  8  1  0  0  0  0
 10 29  1  0  0  0  0
 10 30  1  0  0  0  0
 11 12  1  0  0  0  0
 11 31  1  0  0  0  0
 11 32  1  0  0  0  0
 12 13  1  0  0  0  0
 12 33  1  0  0  0  0
 12 34  1  0  0  0  0
 13 14  1  0  0  0  0
 14 15  1  0  0  0  0
 14 16  1  0  0  0  0
 14 17  1  0  0  0  0
 14 18  1  0  0  0  0
 15 19  1  0  0  0  0
 17 21  1  0  0  0  0
 19 20  1  0  0  0  0
 19 35  1  0  0  0  0
 19 36  1  0  0  0  0
 20 16  1  0  0  0  0
 20 37  1  0  0  0  0
 20 38  1  0  0  0  0
 21 22  1  0  0  0  0
 21 39  1  0  0  0  0
 21 40  1  0  0  0  0
 22 18  1  0  0  0  0
 22 41  1  0  0  0  0
 22 42  1  0  0  0  0
M  END
> <NMREDATA_VERSION>
1.1

> <NMREDATA_LEVEL>
0

> <NMREDATA_FORMULA>
C10H20O10P2

> <NMREDATA_SMILES>
C(OP12(OCCO2)OCCO1)COP12(OCCO2)OCCO1

> <NMREDATA_ASSIGNMENT>
P1, -27.00, 1
P14, -27.00, 14

> <NMREDATA_1D_31P>
-27.00, L=P1
-27.00, L=P14

$$$$
