
 OpenBabel08102311302D

 72 72  0  0  0  0  0  0  0  0999 V2000
   23.5632  -18.1323    0.0000 P    0  0  3  0  0  0  0  0  0  0  0  0
   24.8932  -19.4623    0.0000 P    0  0  3  0  0  0  0  0  0  0  0  0
   24.8932  -18.1323    0.0000 N    0  0  0  0  0  0  0  0  0  0  0  0
   23.5633  -19.4623    0.0000 N    0  0  0  0  0  0  0  0  0  0  0  0
   26.4227  -16.7358    0.0000 Si   0  0  0  0  0  0  0  0  0  0  0  0
   22.2110  -20.7258    0.0000 Si   0  0  0  0  0  0  0  0  0  0  0  0
   26.6443  -14.6965    0.0000 C    0  0  0  0  0  0  0  0  0  0  0  0
   28.7723  -15.6275    0.0000 C    0  0  0  0  0  0  0  0  0  0  0  0
   29.1935  -18.0215    0.0000 C    0  0  0  0  0  0  0  0  0  0  0  0
   18.9525  -20.5042    0.0000 C    0  0  0  0  0  0  0  0  0  0  0  0
   19.3958  -21.7898    0.0000 C    0  0  0  0  0  0  0  0  0  0  0  0
   22.6543  -23.0977    0.0000 C    0  0  0  0  0  0  0  0  0  0  0  0
   21.4352  -16.1373    0.0000 N    0  0  0  0  0  0  0  0  0  0  0  0
   27.3758  -20.6815    0.0000 N    0  0  0  0  0  0  0  0  0  0  0  0
   27.4651  -22.0085    0.0000 C    0  0  0  0  0  0  0  0  0  0  0  0
   28.6590  -22.5948    0.0000 C    0  0  0  0  0  0  0  0  0  0  0  0
   26.3604  -22.7493    0.0000 C    0  0  0  0  0  0  0  0  0  0  0  0
   28.4804  -19.9407    0.0000 C    0  0  0  0  0  0  0  0  0  0  0  0
   28.3912  -18.6136    0.0000 C    0  0  0  0  0  0  0  0  0  0  0  0
   29.6743  -20.5269    0.0000 C    0  0  0  0  0  0  0  0  0  0  0  0
   21.7378  -14.8422    0.0000 C    0  0  0  0  0  0  0  0  0  0  0  0
   20.7674  -13.9325    0.0000 C    0  0  0  0  0  0  0  0  0  0  0  0
   23.0107  -14.4567    0.0000 C    0  0  0  0  0  0  0  0  0  0  0  0
   20.1623  -16.5228    0.0000 C    0  0  0  0  0  0  0  0  0  0  0  0
   19.8597  -17.8181    0.0000 C    0  0  0  0  0  0  0  0  0  0  0  0
   19.1920  -15.6132    0.0000 C    0  0  0  0  0  0  0  0  0  0  0  0
   27.6233  -14.2647    0.0000 H    0  0  0  0  0  0  0  0  0  0  0  0
   25.7809  -14.0645    0.0000 H    0  0  0  0  0  0  0  0  0  0  0  0
   26.7599  -13.6328    0.0000 H    0  0  0  0  0  0  0  0  0  0  0  0
   29.6515  -16.2373    0.0000 H    0  0  0  0  0  0  0  0  0  0  0  0
   28.8608  -14.5612    0.0000 H    0  0  0  0  0  0  0  0  0  0  0  0
   29.7400  -15.1710    0.0000 H    0  0  0  0  0  0  0  0  0  0  0  0
   29.2888  -19.0873    0.0000 H    0  0  0  0  0  0  0  0  0  0  0  0
   30.0688  -17.4061    0.0000 H    0  0  0  0  0  0  0  0  0  0  0  0
   30.1641  -18.4719    0.0000 H    0  0  0  0  0  0  0  0  0  0  0  0
   18.4816  -19.5434    0.0000 H    0  0  0  0  0  0  0  0  0  0  0  0
   18.3559  -21.3924    0.0000 H    0  0  0  0  0  0  0  0  0  0  0  0
   17.8850  -20.4316    0.0000 H    0  0  0  0  0  0  0  0  0  0  0  0
   18.5677  -21.1121    0.0000 H    0  0  0  0  0  0  0  0  0  0  0  0
   19.2230  -22.8457    0.0000 H    0  0  0  0  0  0  0  0  0  0  0  0
   18.3949  -22.1681    0.0000 H    0  0  0  0  0  0  0  0  0  0  0  0
   21.8417  -23.7938    0.0000 H    0  0  0  0  0  0  0  0  0  0  0  0
   23.6635  -23.4534    0.0000 H    0  0  0  0  0  0  0  0  0  0  0  0
   22.8509  -24.1495    0.0000 H    0  0  0  0  0  0  0  0  0  0  0  0
   26.5046  -21.5369    0.0000 H    0  0  0  0  0  0  0  0  0  0  0  0
   28.7308  -23.6624    0.0000 H    0  0  0  0  0  0  0  0  0  0  0  0
   29.5477  -21.9989    0.0000 H    0  0  0  0  0  0  0  0  0  0  0  0
   29.6194  -23.0665    0.0000 H    0  0  0  0  0  0  0  0  0  0  0  0
   25.4000  -22.2776    0.0000 H    0  0  0  0  0  0  0  0  0  0  0  0
   26.4322  -23.8169    0.0000 H    0  0  0  0  0  0  0  0  0  0  0  0
   25.4717  -23.3452    0.0000 H    0  0  0  0  0  0  0  0  0  0  0  0
   28.5522  -21.0083    0.0000 H    0  0  0  0  0  0  0  0  0  0  0  0
   29.2799  -18.0177    0.0000 H    0  0  0  0  0  0  0  0  0  0  0  0
   27.4308  -18.1419    0.0000 H    0  0  0  0  0  0  0  0  0  0  0  0
   28.3194  -17.5460    0.0000 H    0  0  0  0  0  0  0  0  0  0  0  0
   29.7461  -21.5945    0.0000 H    0  0  0  0  0  0  0  0  0  0  0  0
   30.5629  -19.9309    0.0000 H    0  0  0  0  0  0  0  0  0  0  0  0
   30.6348  -20.9985    0.0000 H    0  0  0  0  0  0  0  0  0  0  0  0
   22.5184  -15.5740    0.0000 H    0  0  0  0  0  0  0  0  0  0  0  0
   21.0108  -12.8906    0.0000 H    0  0  0  0  0  0  0  0  0  0  0  0
   19.7433  -14.2426    0.0000 H    0  0  0  0  0  0  0  0  0  0  0  0
   19.9868  -13.2007    0.0000 H    0  0  0  0  0  0  0  0  0  0  0  0
   23.7913  -15.1885    0.0000 H    0  0  0  0  0  0  0  0  0  0  0  0
   23.2541  -13.4148    0.0000 H    0  0  0  0  0  0  0  0  0  0  0  0
   24.0348  -14.1466    0.0000 H    0  0  0  0  0  0  0  0  0  0  0  0
   20.4057  -15.4809    0.0000 H    0  0  0  0  0  0  0  0  0  0  0  0
   18.8356  -18.1283    0.0000 H    0  0  0  0  0  0  0  0  0  0  0  0
   20.6403  -18.5499    0.0000 H    0  0  0  0  0  0  0  0  0  0  0  0
   19.6163  -18.8600    0.0000 H    0  0  0  0  0  0  0  0  0  0  0  0
   19.4354  -14.5713    0.0000 H    0  0  0  0  0  0  0  0  0  0  0  0
   18.1679  -15.9233    0.0000 H    0  0  0  0  0  0  0  0  0  0  0  0
   18.4114  -14.8814    0.0000 H    0  0  0  0  0  0  0  0  0  0  0  0
  1  3  1  0  0  0  0
  1  4  1  0  0  0  0
  1 13  1  0  0  0  0
  2  4  1  0  0  0  0
  2  3  1  0  0  0  0
  2 14  1  0  0  0  0
  3  5  1  0  0  0  0
  4  6  1  0  0  0  0
  5  7  1  0  0  0  0
  5  8  1  0  0  0  0
  5  9  1  0  0  0  0
  6 10  1  0  0  0  0
  6 11  1  0  0  0  0
  6 12  1  0  0  0  0
  7 27  1  0  0  0  0
  7 28  1  0  0  0  0
  7 29  1  0  0  0  0
  8 30  1  0  0  0  0
  8 31  1  0  0  0  0
  8 32  1  0  0  0  0
  9 33  1  0  0  0  0
  9 34  1  0  0  0  0
  9 35  1  0  0  0  0
 10 36  1  0  0  0  0
 10 37  1  0  0  0  0
 10 38  1  0  0  0  0
 11 39  1  0  0  0  0
 11 40  1  0  0  0  0
 11 41  1  0  0  0  0
 12 42  1  0  0  0  0
 12 43  1  0  0  0  0
 12 44  1  0  0  0  0
 13 21  1  0  0  0  0
 13 24  1  0  0  0  0
 14 15  1  0  0  0  0
 14 18  1  0  0  0  0
 15 16  1  0  0  0  0
 15 17  1  0  0  0  0
 15 45  1  0  0  0  0
 16 46  1  0  0  0  0
 16 47  1  0  0  0  0
 16 48  1  0  0  0  0
 17 49  1  0  0  0  0
 17 50  1  0  0  0  0
 17 51  1  0  0  0  0
 18 19  1  0  0  0  0
 18 20  1  0  0  0  0
 18 52  1  0  0  0  0
 19 53  1  0  0  0  0
 19 54  1  0  0  0  0
 19 55  1  0  0  0  0
 20 56  1  0  0  0  0
 20 57  1  0  0  0  0
 20 58  1  0  0  0  0
 21 22  1  0  0  0  0
 21 23  1  0  0  0  0
 21 59  1  0  0  0  0
 22 60  1  0  0  0  0
 22 61  1  0  0  0  0
 22 62  1  0  0  0  0
 23 63  1  0  0  0  0
 23 64  1  0  0  0  0
 23 65  1  0  0  0  0
 24 25  1  0  0  0  0
 24 26  1  0  0  0  0
 24 66  1  0  0  0  0
 25 67  1  0  0  0  0
 25 68  1  0  0  0  0
 25 69  1  0  0  0  0
 26 70  1  0  0  0  0
 26 71  1  0  0  0  0
 26 72  1  0  0  0  0
M  END
> <NMREDATA_VERSION>
1.1

> <NMREDATA_LEVEL>
0

> <NMREDATA_FORMULA>
C18H46N4P2Si2

> <NMREDATA_SMILES>
CC(N(P1N(P(N1[Si](C)(C)C)N(C(C)C)C(C)C)[Si](C)(C)C)C(C)C)C

> <NMREDATA_ASSIGNMENT>
P1, 95.00, 1
P2, 95.00, 2

> <NMREDATA_1D_31P>
95.00, L=P1
95.00, L=P2

$$$$
