
 OpenBabel08102311312D

 49 52  0  0  0  0  0  0  0  0999 V2000
    5.0249   -7.0050    0.0000 P    0  0  0  0  0  0  0  0  0  0  0  0
    5.0249   -8.3204    0.0000 C    0  0  0  0  0  0  0  0  0  0  0  0
    3.8857   -6.3472    0.0000 C    0  0  0  0  0  0  0  0  0  0  0  0
    6.1642   -6.3472    0.0000 C    0  0  0  0  0  0  0  0  0  0  0  0
    7.3034   -7.0050    0.0000 P    0  0  0  0  0  0  0  0  0  0  0  0
    7.3034   -8.3204    0.0000 C    0  0  0  0  0  0  0  0  0  0  0  0
    8.4426   -6.3472    0.0000 C    0  0  0  0  0  0  0  0  0  0  0  0
    6.1642   -5.0318    0.0000 Li   0  0  0  0  0  0  0  0  0  0  0  0
    6.1642   -8.9781    0.0000 C    0  0  0  0  0  0  0  0  0  0  0  0
    6.1642  -10.2936    0.0000 C    0  0  0  0  0  0  0  0  0  0  0  0
    5.0249  -10.9513    0.0000 C    0  0  0  0  0  0  0  0  0  0  0  0
    3.8857  -10.2936    0.0000 C    0  0  0  0  0  0  0  0  0  0  0  0
    3.8857   -8.9782    0.0000 C    0  0  0  0  0  0  0  0  0  0  0  0
    2.7465   -7.0050    0.0000 C    0  0  0  0  0  0  0  0  0  0  0  0
    1.6073   -6.3472    0.0000 C    0  0  0  0  0  0  0  0  0  0  0  0
    1.6073   -5.0318    0.0000 C    0  0  0  0  0  0  0  0  0  0  0  0
    2.7465   -4.3740    0.0000 C    0  0  0  0  0  0  0  0  0  0  0  0
    3.8857   -5.0318    0.0000 C    0  0  0  0  0  0  0  0  0  0  0  0
    8.4426   -8.9781    0.0000 C    0  0  0  0  0  0  0  0  0  0  0  0
    8.4426  -10.2936    0.0000 C    0  0  0  0  0  0  0  0  0  0  0  0
    7.3034  -10.9513    0.0000 C    0  0  0  0  0  0  0  0  0  0  0  0
    6.1642  -10.2936    0.0000 C    0  0  0  0  0  0  0  0  0  0  0  0
    6.1642   -8.9782    0.0000 C    0  0  0  0  0  0  0  0  0  0  0  0
    8.4426   -5.0318    0.0000 C    0  0  0  0  0  0  0  0  0  0  0  0
    9.5818   -4.3740    0.0000 C    0  0  0  0  0  0  0  0  0  0  0  0
   10.7211   -5.0317    0.0000 C    0  0  0  0  0  0  0  0  0  0  0  0
   10.7211   -6.3472    0.0000 C    0  0  0  0  0  0  0  0  0  0  0  0
    9.5818   -7.0049    0.0000 C    0  0  0  0  0  0  0  0  0  0  0  0
    7.0909   -5.8122    0.0000 H    0  0  0  0  0  0  0  0  0  0  0  0
    7.0579   -8.4621    0.0000 H    0  0  0  0  0  0  0  0  0  0  0  0
    7.0579  -10.8096    0.0000 H    0  0  0  0  0  0  0  0  0  0  0  0
    5.0249  -11.9833    0.0000 H    0  0  0  0  0  0  0  0  0  0  0  0
    2.9920  -10.8096    0.0000 H    0  0  0  0  0  0  0  0  0  0  0  0
    2.9919   -8.4622    0.0000 H    0  0  0  0  0  0  0  0  0  0  0  0
    2.7465   -8.0370    0.0000 H    0  0  0  0  0  0  0  0  0  0  0  0
    0.7135   -6.8632    0.0000 H    0  0  0  0  0  0  0  0  0  0  0  0
    0.7135   -4.5158    0.0000 H    0  0  0  0  0  0  0  0  0  0  0  0
    2.7465   -3.3420    0.0000 H    0  0  0  0  0  0  0  0  0  0  0  0
    4.7795   -4.5158    0.0000 H    0  0  0  0  0  0  0  0  0  0  0  0
    9.3363   -8.4621    0.0000 H    0  0  0  0  0  0  0  0  0  0  0  0
    9.3363  -10.8096    0.0000 H    0  0  0  0  0  0  0  0  0  0  0  0
    7.3034  -11.9833    0.0000 H    0  0  0  0  0  0  0  0  0  0  0  0
    5.2705  -10.8096    0.0000 H    0  0  0  0  0  0  0  0  0  0  0  0
    5.2704   -8.4622    0.0000 H    0  0  0  0  0  0  0  0  0  0  0  0
    7.5488   -4.5158    0.0000 H    0  0  0  0  0  0  0  0  0  0  0  0
    9.5817   -3.3420    0.0000 H    0  0  0  0  0  0  0  0  0  0  0  0
   11.6148   -4.5157    0.0000 H    0  0  0  0  0  0  0  0  0  0  0  0
   11.6148   -6.8632    0.0000 H    0  0  0  0  0  0  0  0  0  0  0  0
    9.5818   -8.0369    0.0000 H    0  0  0  0  0  0  0  0  0  0  0  0
  1  2  1  0  0  0  0
  1  3  1  0  0  0  0
  1  4  1  0  0  0  0
  2  9  2  0  0  0  0
  2 13  1  0  0  0  0
  3 14  2  0  0  0  0
  3 18  1  0  0  0  0
  4  5  1  0  0  0  0
  4  8  1  0  0  0  0
  4 29  1  0  0  0  0
  5  6  1  0  0  0  0
  5  7  1  0  0  0  0
  6 19  2  0  0  0  0
  6 23  1  0  0  0  0
  7 24  2  0  0  0  0
  7 28  1  0  0  0  0
  9 10  1  0  0  0  0
  9 30  1  0  0  0  0
 10 11  2  0  0  0  0
 10 31  1  0  0  0  0
 11 12  1  0  0  0  0
 11 32  1  0  0  0  0
 12 13  2  0  0  0  0
 12 33  1  0  0  0  0
 13 34  1  0  0  0  0
 14 15  1  0  0  0  0
 14 35  1  0  0  0  0
 15 16  2  0  0  0  0
 15 36  1  0  0  0  0
 16 17  1  0  0  0  0
 16 37  1  0  0  0  0
 17 18  2  0  0  0  0
 17 38  1  0  0  0  0
 18 39  1  0  0  0  0
 19 20  1  0  0  0  0
 19 40  1  0  0  0  0
 20 21  2  0  0  0  0
 20 41  1  0  0  0  0
 21 22  1  0  0  0  0
 21 42  1  0  0  0  0
 22 23  2  0  0  0  0
 22 43  1  0  0  0  0
 23 44  1  0  0  0  0
 24 25  1  0  0  0  0
 24 45  1  0  0  0  0
 25 26  2  0  0  0  0
 25 46  1  0  0  0  0
 26 27  1  0  0  0  0
 26 47  1  0  0  0  0
 27 28  2  0  0  0  0
 27 48  1  0  0  0  0
 28 49  1  0  0  0  0
M  END
> <NMREDATA_VERSION>
1.1

> <NMREDATA_LEVEL>
0

> <NMREDATA_FORMULA>
C25H21LiP2

> <NMREDATA_SMILES>
[Li]C(P(c1ccccc1)c1ccccc1)P(c1ccccc1)c1ccccc1

> <NMREDATA_ASSIGNMENT>
P1, -3.70, 1
P5, -3.70, 5

> <NMREDATA_1D_31P>
-3.70, L=P1
-3.70, L=P5

$$$$
