
 OpenBabel08102311322D

 15 14  0  0  0  0  0  0  0  0999 V2000
    7.4417  -12.5844    0.0000 P   0  0  0  0  0  0  0  0  0  0  0  0
    5.8057  -14.0571    0.0000 O   0  0  0  0  0  0  0  0  0  0  0  0
    5.6567  -11.2517    0.0000 O   0  0  0  0  0  0  0  0  0  0  0  0
    8.0348  -11.0489    0.0000 O   0  0  0  0  0  0  0  0  0  0  0  0
    8.7027  -13.6341    0.0000 C   0  0  0  0  0  0  0  0  0  0  0  0
    8.8290  -15.2603    0.0000 P   0  0  0  0  0  0  0  0  0  0  0  0
   10.3195  -13.4763    0.0000 F   0  0  0  0  0  0  0  0  0  0  0  0
    7.8198  -16.2324    0.0000 O   0  0  0  0  0  0  0  0  0  0  0  0
   11.2169  -16.0722    0.0000 O   0  0  0  0  0  0  0  0  0  0  0  0
    9.6625  -17.6265    0.0000 O   0  0  0  0  0  0  0  0  0  0  0  0
    5.7706  -10.2884    0.0000 H   0  0  0  0  0  0  0  0  0  0  0  0
    8.9932  -10.8992    0.0000 H   0  0  0  0  0  0  0  0  0  0  0  0
    9.5225  -14.3218    0.0000 H   0  0  0  0  0  0  0  0  0  0  0  0
   11.4057  -17.0237    0.0000 H   0  0  0  0  0  0  0  0  0  0  0  0
    9.0313  -18.3630    0.0000 H   0  0  0  0  0  0  0  0  0  0  0  0
  1  2  2  0  0  0  0
  1  3  1  0  0  0  0
  1  4  1  0  0  0  0
  1  5  1  0  0  0  0
  3 11  1  0  0  0  0
  4 12  1  0  0  0  0
  5  6  1  0  0  0  0
  5  7  1  0  0  0  0
  5 13  1  0  0  0  0
  6  8  2  0  0  0  0
  6  9  1  0  0  0  0
  6 10  1  0  0  0  0
  9 14  1  0  0  0  0
 10 15  1  0  0  0  0
M  END
> <NMREDATA_VERSION>
1.1

> <NMREDATA_LEVEL>
0

> <NMREDATA_FORMULA>
CH5FO6P2

> <NMREDATA_SMILES>
FC(P(=O)(O)O)P(=O)(O)O

> <NMREDATA_ASSIGNMENT>
P1, 10.50, 1
P6, 10.50, 6

> <NMREDATA_1D_31P>
10.50, L=P1
10.50, L=P6

$$$$
