
 OpenBabel08102311352D

 74 76  0  0  0  0  0  0  0  0999 V2000
   13.1718   -9.2139    0.0000 P   0  0  0  0  0  0  0  0  0  0  0  0
   13.9536   -8.1379    0.0000 O   0  0  0  0  0  0  0  0  0  0  0  0
   13.9536  -10.2899    0.0000 O   0  0  0  0  0  0  0  0  0  0  0  0
   15.2185   -8.5488    0.0000 C   0  0  0  0  0  0  0  0  0  0  0  0
   15.2187   -9.8788    0.0000 C   0  0  3  0  0  0  0  0  0  0  0  0
   12.3901  -10.2899    0.0000 O   0  0  0  0  0  0  0  0  0  0  0  0
   12.3900   -8.1378    0.0000 O   0  0  0  0  0  0  0  0  0  0  0  0
   11.1252   -9.8789    0.0000 C   0  0  3  0  0  0  0  0  0  0  0  0
   11.1250   -8.5489    0.0000 C   0  0  0  0  0  0  0  0  0  0  0  0
   13.2199  -12.9154    0.0000 P   0  0  0  0  0  0  0  0  0  0  0  0
   14.0016  -11.8394    0.0000 O   0  0  0  0  0  0  0  0  0  0  0  0
   14.0017  -13.9914    0.0000 O   0  0  0  0  0  0  0  0  0  0  0  0
   15.2665  -12.2504    0.0000 C   0  0  3  0  0  0  0  0  0  0  0  0
   15.2667  -13.5804    0.0000 C   0  0  0  0  0  0  0  0  0  0  0  0
   12.4381  -13.9914    0.0000 O   0  0  0  0  0  0  0  0  0  0  0  0
   12.4381  -11.8394    0.0000 O   0  0  0  0  0  0  0  0  0  0  0  0
   11.1732  -13.5804    0.0000 C   0  0  0  0  0  0  0  0  0  0  0  0
   11.1730  -12.2505    0.0000 C   0  0  3  0  0  0  0  0  0  0  0  0
   10.0973  -14.3623    0.0000 O   0  0  0  0  0  0  0  0  0  0  0  0
   10.0489   -7.7673    0.0000 O   0  0  0  0  0  0  0  0  0  0  0  0
   16.2944   -7.7670    0.0000 O   0  0  0  0  0  0  0  0  0  0  0  0
   16.3428  -14.3620    0.0000 O   0  0  0  0  0  0  0  0  0  0  0  0
   13.2199  -14.9184    0.0000 S   0  5  0  0  0  0  0  0  0  0  0  0
   13.1237   -7.1628    0.0000 S   0  5  0  0  0  0  0  0  0  0  0  0
   12.8193   -4.7111    0.0000 N   0  3  0  0  0  0  0  0  0  0  0  0
   12.0181   -4.7592    0.0000 H   0  0  0  0  0  0  0  0  0  0  0  0
   13.5724   -3.8137    0.0000 C   0  0  0  0  0  0  0  0  0  0  0  0
   14.8704   -3.4612    0.0000 C   0  0  0  0  0  0  0  0  0  0  0  0
   14.0211   -4.8072    0.0000 C   0  0  0  0  0  0  0  0  0  0  0  0
   14.8704   -4.3586    0.0000 C   0  0  0  0  0  0  0  0  0  0  0  0
   13.6205   -5.6084    0.0000 C   0  0  0  0  0  0  0  0  0  0  0  0
   15.0787   -5.6084    0.0000 C   0  0  0  0  0  0  0  0  0  0  0  0
   13.0757  -16.6330    0.0000 N   0  3  0  0  0  0  0  0  0  0  0  0
   12.2745  -16.6811    0.0000 H   0  0  0  0  0  0  0  0  0  0  0  0
   13.8288  -15.7357    0.0000 C   0  0  0  0  0  0  0  0  0  0  0  0
   15.1268  -15.3831    0.0000 C   0  0  0  0  0  0  0  0  0  0  0  0
   14.2775  -16.7292    0.0000 C   0  0  0  0  0  0  0  0  0  0  0  0
   15.1268  -16.2805    0.0000 C   0  0  0  0  0  0  0  0  0  0  0  0
   13.8769  -17.5304    0.0000 C   0  0  0  0  0  0  0  0  0  0  0  0
   15.3351  -17.5304    0.0000 C   0  0  0  0  0  0  0  0  0  0  0  0
   14.3530   -9.2499    0.0000 H   0  0  0  0  0  0  0  0  0  0  0  0
   11.9908   -9.2499    0.0000 H   0  0  0  0  0  0  0  0  0  0  0  0
   14.4009  -12.8794    0.0000 H   0  0  0  0  0  0  0  0  0  0  0  0
   12.0387  -12.8794    0.0000 H   0  0  0  0  0  0  0  0  0  0  0  0
   12.9960   -2.9122    0.0000 H   0  0  0  0  0  0  0  0  0  0  0  0
   13.9577   -2.8155    0.0000 H   0  0  0  0  0  0  0  0  0  0  0  0
   15.6296   -4.2152    0.0000 H   0  0  0  0  0  0  0  0  0  0  0  0
   15.1438   -2.4267    0.0000 H   0  0  0  0  0  0  0  0  0  0  0  0
   15.9030   -3.1808    0.0000 H   0  0  0  0  0  0  0  0  0  0  0  0
   14.2369   -5.8552    0.0000 H   0  0  0  0  0  0  0  0  0  0  0  0
   14.9888   -5.2638    0.0000 H   0  0  0  0  0  0  0  0  0  0  0  0
   15.7763   -4.9281    0.0000 H   0  0  0  0  0  0  0  0  0  0  0  0
   14.9107   -3.2894    0.0000 H   0  0  0  0  0  0  0  0  0  0  0  0
   15.8165   -3.8589    0.0000 H   0  0  0  0  0  0  0  0  0  0  0  0
   13.1833   -6.5850    0.0000 H   0  0  0  0  0  0  0  0  0  0  0  0
   14.2023   -6.5064    0.0000 H   0  0  0  0  0  0  0  0  0  0  0  0
   15.6137   -6.5350    0.0000 H   0  0  0  0  0  0  0  0  0  0  0  0
   15.6137   -4.6818    0.0000 H   0  0  0  0  0  0  0  0  0  0  0  0
   16.1487   -5.6084    0.0000 H   0  0  0  0  0  0  0  0  0  0  0  0
   13.2524  -14.8342    0.0000 H   0  0  0  0  0  0  0  0  0  0  0  0
   14.2141  -14.7375    0.0000 H   0  0  0  0  0  0  0  0  0  0  0  0
   15.8860  -16.1371    0.0000 H   0  0  0  0  0  0  0  0  0  0  0  0
   15.4002  -14.3486    0.0000 H   0  0  0  0  0  0  0  0  0  0  0  0
   16.1594  -15.1026    0.0000 H   0  0  0  0  0  0  0  0  0  0  0  0
   14.4933  -17.7772    0.0000 H   0  0  0  0  0  0  0  0  0  0  0  0
   15.2452  -17.1858    0.0000 H   0  0  0  0  0  0  0  0  0  0  0  0
   16.0327  -16.8499    0.0000 H   0  0  0  0  0  0  0  0  0  0  0  0
   15.1670  -15.2113    0.0000 H   0  0  0  0  0  0  0  0  0  0  0  0
   16.0729  -15.7807    0.0000 H   0  0  0  0  0  0  0  0  0  0  0  0
   13.4396  -18.5070    0.0000 H   0  0  0  0  0  0  0  0  0  0  0  0
   14.4587  -18.4284    0.0000 H   0  0  0  0  0  0  0  0  0  0  0  0
   15.8701  -18.4570    0.0000 H   0  0  0  0  0  0  0  0  0  0  0  0
   15.8701  -16.6038    0.0000 H   0  0  0  0  0  0  0  0  0  0  0  0
   16.4051  -17.5304    0.0000 H   0  0  0  0  0  0  0  0  0  0  0  0
  1  2  1  0  0  0  0
  1  3  1  0  0  0  0
  1  6  1  0  0  0  0
  1  7  1  0  0  0  0
  1 24  1  0  0  0  0
  2  4  1  0  0  0  0
  3  5  1  0  0  0  0
  4  5  1  0  0  0  0
  4 21  2  0  0  0  0
  5 41  1  0  0  0  0
  6  8  1  0  0  0  0
  7  9  1  0  0  0  0
  8  9  1  0  0  0  0
  8 18  1  0  0  0  0
  8 42  1  0  0  0  0
  9 20  2  0  0  0  0
 10 11  1  0  0  0  0
 10 12  1  0  0  0  0
 10 15  1  0  0  0  0
 10 16  1  0  0  0  0
 10 23  1  0  0  0  0
 11 13  1  0  0  0  0
 12 14  1  0  0  0  0
 13 14  1  0  0  0  0
 13  5  1  0  0  0  0
 13 43  1  0  0  0  0
 14 22  2  0  0  0  0
 15 17  1  0  0  0  0
 16 18  1  0  0  0  0
 17 18  1  0  0  0  0
 17 19  2  0  0  0  0
 18 44  1  0  0  0  0
 25 26  1  0  0  0  0
 25 27  1  0  0  0  0
 25 29  1  0  0  0  0
 25 31  1  0  0  0  0
 27 28  1  0  0  0  0
 27 45  1  0  0  0  0
 27 46  1  0  0  0  0
 28 47  1  0  0  0  0
 28 48  1  0  0  0  0
 28 49  1  0  0  0  0
 29 30  1  0  0  0  0
 29 50  1  0  0  0  0
 29 51  1  0  0  0  0
 30 52  1  0  0  0  0
 30 53  1  0  0  0  0
 30 54  1  0  0  0  0
 31 32  1  0  0  0  0
 31 55  1  0  0  0  0
 31 56  1  0  0  0  0
 32 57  1  0  0  0  0
 32 58  1  0  0  0  0
 32 59  1  0  0  0  0
 33 34  1  0  0  0  0
 33 35  1  0  0  0  0
 33 37  1  0  0  0  0
 33 39  1  0  0  0  0
 35 36  1  0  0  0  0
 35 60  1  0  0  0  0
 35 61  1  0  0  0  0
 36 62  1  0  0  0  0
 36 63  1  0  0  0  0
 36 64  1  0  0  0  0
 37 38  1  0  0  0  0
 37 65  1  0  0  0  0
 37 66  1  0  0  0  0
 38 67  1  0  0  0  0
 38 68  1  0  0  0  0
 38 69  1  0  0  0  0
 39 40  1  0  0  0  0
 39 70  1  0  0  0  0
 39 71  1  0  0  0  0
 40 72  1  0  0  0  0
 40 73  1  0  0  0  0
 40 74  1  0  0  0  0
M  END
> <NMREDATA_VERSION>
1.1

> <NMREDATA_LEVEL>
0

> <NMREDATA_FORMULA>
C20H36N2O12P2S2

> <NMREDATA_SMILES>
O=C1OP23(OC1C1OP4(OC1=O)([S-])OC(=O)C(C(O3)C(=O)O2)O4)[S-].CC[NH+](CC)CC.CC[NH+](CC)CC

> <NMREDATA_ASSIGNMENT>
P1, 7.00, 1
P10, 7.00, 10

> <NMREDATA_1D_31P>
7.00, L=P1
7.00, L=P10

$$$$
