
 OpenBabel08102311302D

 56 56  0  0  0  0  0  0  0  0999 V2000
   11.2385   -9.9307    0.0000 P   0  0  3  0  0  0  0  0  0  0  0  0
   15.4723  -10.0193    0.0000 P   0  0  3  0  0  0  0  0  0  0  0  0
   11.3050  -13.3665    0.0000 P   0  0  3  0  0  0  0  0  0  0  0  0
   16.2482  -13.1892    0.0000 P   0  0  3  0  0  0  0  0  0  0  0  0
   17.6220   -7.3383    0.0000 C   0  0  0  0  0  0  0  0  0  0  0  0
   16.3750   -4.1360    0.0000 C   0  0  0  0  0  0  0  0  0  0  0  0
   18.5247   -1.4549    0.0000 C   0  0  0  0  0  0  0  0  0  0  0  0
   12.9783   -3.6147    0.0000 C   0  0  0  0  0  0  0  0  0  0  0  0
   18.9892  -15.2619    0.0000 C   0  0  0  0  0  0  0  0  0  0  0  0
   22.1548  -13.9244    0.0000 C   0  0  0  0  0  0  0  0  0  0  0  0
   24.8958  -15.9971    0.0000 C   0  0  0  0  0  0  0  0  0  0  0  0
   22.5794  -10.5143    0.0000 C   0  0  0  0  0  0  0  0  0  0  0  0
    8.9430  -15.8626    0.0000 C   0  0  0  0  0  0  0  0  0  0  0  0
    9.9238  -19.1562    0.0000 C   0  0  0  0  0  0  0  0  0  0  0  0
    7.5619  -21.6524    0.0000 C   0  0  0  0  0  0  0  0  0  0  0  0
   13.2664  -19.9537    0.0000 C   0  0  0  0  0  0  0  0  0  0  0  0
    8.8105   -7.4988    0.0000 C   0  0  0  0  0  0  0  0  0  0  0  0
    5.4903   -8.3856    0.0000 C   0  0  0  0  0  0  0  0  0  0  0  0
    3.0623   -5.9537    0.0000 C   0  0  0  0  0  0  0  0  0  0  0  0
    4.5982  -11.7043    0.0000 C   0  0  0  0  0  0  0  0  0  0  0  0
   18.6796   -7.5006    0.0000 H   0  0  0  0  0  0  0  0  0  0  0  0
   18.0103   -8.3354    0.0000 H   0  0  0  0  0  0  0  0  0  0  0  0
   15.9867   -3.1389    0.0000 H   0  0  0  0  0  0  0  0  0  0  0  0
   19.5823   -1.6172    0.0000 H   0  0  0  0  0  0  0  0  0  0  0  0
   18.1364   -0.4578    0.0000 H   0  0  0  0  0  0  0  0  0  0  0  0
   19.1940   -0.6201    0.0000 H   0  0  0  0  0  0  0  0  0  0  0  0
   12.5901   -2.6176    0.0000 H   0  0  0  0  0  0  0  0  0  0  0  0
   12.3089   -4.4495    0.0000 H   0  0  0  0  0  0  0  0  0  0  0  0
   11.9207   -3.4524    0.0000 H   0  0  0  0  0  0  0  0  0  0  0  0
   18.8570  -16.3237    0.0000 H   0  0  0  0  0  0  0  0  0  0  0  0
   18.0036  -15.6783    0.0000 H   0  0  0  0  0  0  0  0  0  0  0  0
   23.1404  -13.5080    0.0000 H   0  0  0  0  0  0  0  0  0  0  0  0
   24.7636  -17.0589    0.0000 H   0  0  0  0  0  0  0  0  0  0  0  0
   25.8814  -15.5807    0.0000 H   0  0  0  0  0  0  0  0  0  0  0  0
   25.7493  -16.6425    0.0000 H   0  0  0  0  0  0  0  0  0  0  0  0
   23.5651  -10.0979    0.0000 H   0  0  0  0  0  0  0  0  0  0  0  0
   21.7260   -9.8689    0.0000 H   0  0  0  0  0  0  0  0  0  0  0  0
   22.7116   -9.4525    0.0000 H   0  0  0  0  0  0  0  0  0  0  0  0
    7.9022  -15.6143    0.0000 H   0  0  0  0  0  0  0  0  0  0  0  0
    8.6376  -14.8371    0.0000 H   0  0  0  0  0  0  0  0  0  0  0  0
   10.2292  -20.1817    0.0000 H   0  0  0  0  0  0  0  0  0  0  0  0
    6.5211  -21.4041    0.0000 H   0  0  0  0  0  0  0  0  0  0  0  0
    7.8673  -22.6779    0.0000 H   0  0  0  0  0  0  0  0  0  0  0  0
    6.8265  -22.4296    0.0000 H   0  0  0  0  0  0  0  0  0  0  0  0
   13.5717  -20.9792    0.0000 H   0  0  0  0  0  0  0  0  0  0  0  0
   14.0018  -19.1765    0.0000 H   0  0  0  0  0  0  0  0  0  0  0  0
   14.3072  -20.2020    0.0000 H   0  0  0  0  0  0  0  0  0  0  0  0
    9.0883   -6.4655    0.0000 H   0  0  0  0  0  0  0  0  0  0  0  0
    9.8443   -7.2227    0.0000 H   0  0  0  0  0  0  0  0  0  0  0  0
    4.4565   -8.6617    0.0000 H   0  0  0  0  0  0  0  0  0  0  0  0
    3.3401   -4.9204    0.0000 H   0  0  0  0  0  0  0  0  0  0  0  0
    2.0285   -6.2298    0.0000 H   0  0  0  0  0  0  0  0  0  0  0  0
    2.3063   -5.1965    0.0000 H   0  0  0  0  0  0  0  0  0  0  0  0
    3.5644  -11.9804    0.0000 H   0  0  0  0  0  0  0  0  0  0  0  0
    5.3542  -12.4615    0.0000 H   0  0  0  0  0  0  0  0  0  0  0  0
    4.3204  -12.7376    0.0000 H   0  0  0  0  0  0  0  0  0  0  0  0
  1  2  1  0  0  0  0
  1  3  1  0  0  0  0
  1 17  1  0  0  0  0
  2  5  1  0  0  0  0
  3  4  1  0  0  0  0
  3 13  1  0  0  0  0
  4  2  1  0  0  0  0
  4  9  1  0  0  0  0
  5  6  1  0  0  0  0
  5 21  1  0  0  0  0
  5 22  1  0  0  0  0
  6  7  1  0  0  0  0
  6  8  1  0  0  0  0
  6 23  1  0  0  0  0
  7 24  1  0  0  0  0
  7 25  1  0  0  0  0
  7 26  1  0  0  0  0
  8 27  1  0  0  0  0
  8 28  1  0  0  0  0
  8 29  1  0  0  0  0
  9 10  1  0  0  0  0
  9 30  1  0  0  0  0
  9 31  1  0  0  0  0
 10 11  1  0  0  0  0
 10 12  1  0  0  0  0
 10 32  1  0  0  0  0
 11 33  1  0  0  0  0
 11 34  1  0  0  0  0
 11 35  1  0  0  0  0
 12 36  1  0  0  0  0
 12 37  1  0  0  0  0
 12 38  1  0  0  0  0
 13 14  1  0  0  0  0
 13 39  1  0  0  0  0
 13 40  1  0  0  0  0
 14 15  1  0  0  0  0
 14 16  1  0  0  0  0
 14 41  1  0  0  0  0
 15 42  1  0  0  0  0
 15 43  1  0  0  0  0
 15 44  1  0  0  0  0
 16 45  1  0  0  0  0
 16 46  1  0  0  0  0
 16 47  1  0  0  0  0
 17 18  1  0  0  0  0
 17 48  1  0  0  0  0
 17 49  1  0  0  0  0
 18 19  1  0  0  0  0
 18 20  1  0  0  0  0
 18 50  1  0  0  0  0
 19 51  1  0  0  0  0
 19 52  1  0  0  0  0
 19 53  1  0  0  0  0
 20 54  1  0  0  0  0
 20 55  1  0  0  0  0
 20 56  1  0  0  0  0
M  END
> <NMREDATA_VERSION>
1.1

> <NMREDATA_LEVEL>
0

> <NMREDATA_FORMULA>
C16H36P4

> <NMREDATA_SMILES>
CC(CP1P(CC(C)C)P(P1CC(C)C)CC(C)C)C

> <NMREDATA_ASSIGNMENT>
P1, 13.00, 1
P2, 13.00, 2
P3, 13.00, 3
P4, 13.00, 4

> <NMREDATA_1D_31P>
13.00, L=P1
13.00, L=P2
13.00, L=P3
13.00, L=P4

$$$$
