
 OpenBabel08102311322D

 24 23  0  0  0  0  0  0  0  0999 V2000
   17.5689   -6.7487    0.0000 C   0  0  0  0  0  0  0  0  0  0  0  0
   17.5689   -5.3385    0.0000 P   0  0  0  0  0  0  0  0  0  0  0  0
   17.5689   -3.9284    0.0000 O   0  0  0  0  0  0  0  0  0  0  0  0
   16.1588   -5.3385    0.0000 O   0  0  0  0  0  0  0  0  0  0  0  0
   18.9791   -5.3385    0.0000 O   0  0  0  0  0  0  0  0  0  0  0  0
   16.3477   -8.8638    0.0000 C   0  0  0  0  0  0  0  0  0  0  0  0
   16.3477   -7.4537    0.0000 C   0  0  0  0  0  0  0  0  0  0  0  0
   15.1265   -9.5689    0.0000 C   0  0  0  0  0  0  0  0  0  0  0  0
   13.9053   -8.8638    0.0000 P   0  0  0  0  0  0  0  0  0  0  0  0
   12.8674   -9.5664    0.0000 O   0  0  0  0  0  0  0  0  0  0  0  0
   13.8769   -7.0666    0.0000 O   0  0  0  0  0  0  0  0  0  0  0  0
   14.1653  -10.0631    0.0000 O   0  0  0  0  0  0  0  0  0  0  0  0
   18.4955   -7.2837    0.0000 H   0  0  0  0  0  0  0  0  0  0  0  0
   17.5689   -7.8187    0.0000 H   0  0  0  0  0  0  0  0  0  0  0  0
   15.6738   -4.4985    0.0000 H   0  0  0  0  0  0  0  0  0  0  0  0
   19.4641   -6.1785    0.0000 H   0  0  0  0  0  0  0  0  0  0  0  0
   17.2744   -9.3988    0.0000 H   0  0  0  0  0  0  0  0  0  0  0  0
   16.3477   -9.9338    0.0000 H   0  0  0  0  0  0  0  0  0  0  0  0
   15.4211   -6.9187    0.0000 H   0  0  0  0  0  0  0  0  0  0  0  0
   16.3477   -6.3837    0.0000 H   0  0  0  0  0  0  0  0  0  0  0  0
   15.1265  -10.6389    0.0000 H   0  0  0  0  0  0  0  0  0  0  0  0
   14.1998  -10.1039    0.0000 H   0  0  0  0  0  0  0  0  0  0  0  0
   11.9949   -9.1426    0.0000 H   0  0  0  0  0  0  0  0  0  0  0  0
   13.4471  -10.7151    0.0000 H   0  0  0  0  0  0  0  0  0  0  0  0
  1  2  1  0  0  0  0
  1  7  1  0  0  0  0
  1 13  1  0  0  0  0
  1 14  1  0  0  0  0
  2  3  2  0  0  0  0
  2  4  1  0  0  0  0
  2  5  1  0  0  0  0
  4 15  1  0  0  0  0
  5 16  1  0  0  0  0
  6  7  1  0  0  0  0
  6  8  1  0  0  0  0
  6 17  1  0  0  0  0
  6 18  1  0  0  0  0
  7 19  1  0  0  0  0
  7 20  1  0  0  0  0
  8  9  1  0  0  0  0
  8 21  1  0  0  0  0
  8 22  1  0  0  0  0
  9 10  1  0  0  0  0
  9 11  2  0  0  0  0
  9 12  1  0  0  0  0
 10 23  1  0  0  0  0
 12 24  1  0  0  0  0
M  END
> <NMREDATA_VERSION>
1.1

> <NMREDATA_LEVEL>
0

> <NMREDATA_FORMULA>
C4H12O6P2

> <NMREDATA_SMILES>
OP(=O)(CCCCP(=O)(O)O)O

> <NMREDATA_ASSIGNMENT>
P2, 31.60, 2
P9, 31.60, 9

> <NMREDATA_1D_31P>
31.60, L=P2
31.60, L=P9

$$$$
