
 OpenBabel08102311302D

  9  8  0  0  0  0  0  0  0  0999 V2000
    6.7663   -7.2678    0.0000 P   0  0  0  0  0  0  0  0  0  0  0  0
    8.1544   -6.7445    0.0000 C   0  0  0  0  0  0  0  0  0  0  0  0
    9.6080   -7.3114    0.0000 P   0  0  0  0  0  0  0  0  0  0  0  0
    5.6991   -6.3929    0.0000 H   0  0  0  0  0  0  0  0  0  0  0  0
    6.5422   -8.6295    0.0000 H   0  0  0  0  0  0  0  0  0  0  0  0
    8.1605   -5.6745    0.0000 H   0  0  0  0  0  0  0  0  0  0  0  0
    9.0395   -6.1433    0.0000 H   0  0  0  0  0  0  0  0  0  0  0  0
    9.8166   -8.6755    0.0000 H   0  0  0  0  0  0  0  0  0  0  0  0
   10.6851   -6.4487    0.0000 H   0  0  0  0  0  0  0  0  0  0  0  0
  1  2  1  0  0  0  0
  1  4  1  0  0  0  0
  1  5  1  0  0  0  0
  2  3  1  0  0  0  0
  2  6  1  0  0  0  0
  2  7  1  0  0  0  0
  3  8  1  0  0  0  0
  3  9  1  0  0  0  0
M  END
> <NMREDATA_VERSION>
1.1

> <NMREDATA_LEVEL>
0

> <NMREDATA_FORMULA>
CH6P2

> <NMREDATA_SMILES>
PCP

> <NMREDATA_ASSIGNMENT>
P1, -121.80, 1
P3, -121.80, 3

> <NMREDATA_1D_31P>
-121.80, L=P1
-121.80, L=P3

$$$$
