
 OpenBabel06122522452D

 41 42  0  0  0  0  0  0  0  0999 V2000
    7.1045   -8.6050    0.0000 C    0  0  0  0  0  0  0  0  0  0  0  0
    5.9527   -7.9400    0.0000 P    0  0  3  0  0  0  0  0  0  0  0  0
    4.8009   -8.6050    0.0000 Li   0  0  0  0  0  0  0  0  0  0  0  0
    5.9527   -6.6100    0.0000 C    0  0  0  0  0  0  0  0  0  0  0  0
    8.2564   -7.9400    0.0000 C    0  0  0  0  0  0  0  0  0  0  0  0
    9.4082   -8.6050    0.0000 C    0  0  0  0  0  0  0  0  0  0  0  0
   10.5600   -7.9400    0.0000 C    0  0  0  0  0  0  0  0  0  0  0  0
   11.7118   -8.6050    0.0000 C    0  0  0  0  0  0  0  0  0  0  0  0
   12.8636   -7.9400    0.0000 P    0  0  3  0  0  0  0  0  0  0  0  0
   12.8636   -6.6100    0.0000 Li   0  0  0  0  0  0  0  0  0  0  0  0
   14.0154   -8.6050    0.0000 C    0  0  0  0  0  0  0  0  0  0  0  0
    4.8009   -5.9450    0.0000 C    0  0  0  0  0  0  0  0  0  0  0  0
    4.8009   -4.6150    0.0000 C    0  0  0  0  0  0  0  0  0  0  0  0
    5.9527   -3.9500    0.0000 C    0  0  0  0  0  0  0  0  0  0  0  0
    7.1045   -4.6150    0.0000 C    0  0  0  0  0  0  0  0  0  0  0  0
    7.1045   -5.9450    0.0000 C    0  0  0  0  0  0  0  0  0  0  0  0
   15.1672   -7.9400    0.0000 C    0  0  0  0  0  0  0  0  0  0  0  0
   16.3191   -8.6050    0.0000 C    0  0  0  0  0  0  0  0  0  0  0  0
   16.3191   -9.9350    0.0000 C    0  0  0  0  0  0  0  0  0  0  0  0
   15.1672  -10.6000    0.0000 C    0  0  0  0  0  0  0  0  0  0  0  0
   14.0154   -9.9350    0.0000 C    0  0  0  0  0  0  0  0  0  0  0  0
    7.1045   -9.6750    0.0000 H    0  0  0  0  0  0  0  0  0  0  0  0
    8.0311   -9.1400    0.0000 H    0  0  0  0  0  0  0  0  0  0  0  0
    8.2564   -6.8700    0.0000 H    0  0  0  0  0  0  0  0  0  0  0  0
    9.1831   -7.4050    0.0000 H    0  0  0  0  0  0  0  0  0  0  0  0
    9.4082   -9.6750    0.0000 H    0  0  0  0  0  0  0  0  0  0  0  0
   10.3348   -9.1400    0.0000 H    0  0  0  0  0  0  0  0  0  0  0  0
   10.5600   -6.8700    0.0000 H    0  0  0  0  0  0  0  0  0  0  0  0
   11.4866   -7.4050    0.0000 H    0  0  0  0  0  0  0  0  0  0  0  0
   11.7118   -9.6750    0.0000 H    0  0  0  0  0  0  0  0  0  0  0  0
   12.6384   -9.1400    0.0000 H    0  0  0  0  0  0  0  0  0  0  0  0
    3.9072   -6.4610    0.0000 H    0  0  0  0  0  0  0  0  0  0  0  0
    3.9072   -4.0990    0.0000 H    0  0  0  0  0  0  0  0  0  0  0  0
    5.9527   -2.9180    0.0000 H    0  0  0  0  0  0  0  0  0  0  0  0
    7.9982   -4.0990    0.0000 H    0  0  0  0  0  0  0  0  0  0  0  0
    7.9982   -6.4610    0.0000 H    0  0  0  0  0  0  0  0  0  0  0  0
   15.1672   -6.9080    0.0000 H    0  0  0  0  0  0  0  0  0  0  0  0
   17.2128   -8.0890    0.0000 H    0  0  0  0  0  0  0  0  0  0  0  0
   17.2128  -10.4510    0.0000 H    0  0  0  0  0  0  0  0  0  0  0  0
   15.1672  -11.6320    0.0000 H    0  0  0  0  0  0  0  0  0  0  0  0
   13.1217  -10.4510    0.0000 H    0  0  0  0  0  0  0  0  0  0  0  0
  1  2  1  0  0  0  0
  1  5  1  0  0  0  0
  1 22  1  0  0  0  0
  1 23  1  0  0  0  0
  2  3  1  0  0  0  0
  2  4  1  0  0  0  0
  4 12  2  0  0  0  0
  4 16  1  0  0  0  0
  5  6  1  0  0  0  0
  5 24  1  0  0  0  0
  5 25  1  0  0  0  0
  6  7  1  0  0  0  0
  6 26  1  0  0  0  0
  6 27  1  0  0  0  0
  7  8  1  0  0  0  0
  7 28  1  0  0  0  0
  7 29  1  0  0  0  0
  8  9  1  0  0  0  0
  8 30  1  0  0  0  0
  8 31  1  0  0  0  0
  9 10  1  0  0  0  0
  9 11  1  0  0  0  0
 11 17  2  0  0  0  0
 11 21  1  0  0  0  0
 12 13  1  0  0  0  0
 12 32  1  0  0  0  0
 13 14  2  0  0  0  0
 13 33  1  0  0  0  0
 14 15  1  0  0  0  0
 14 34  1  0  0  0  0
 15 16  2  0  0  0  0
 15 35  1  0  0  0  0
 16 36  1  0  0  0  0
 17 18  1  0  0  0  0
 17 37  1  0  0  0  0
 18 19  2  0  0  0  0
 18 38  1  0  0  0  0
 19 20  1  0  0  0  0
 19 39  1  0  0  0  0
 20 21  2  0  0  0  0
 20 40  1  0  0  0  0
 21 41  1  0  0  0  0
M  END
> <NMREDATA_VERSION>
1.1

> <NMREDATA_LEVEL>
0

> <NMREDATA_FORMULA>
C17H20Li2P2

> <NMREDATA_SMILES>
[Li]P(c1ccccc1)CCCCCP(c1ccccc1)[Li]

> <NMREDATA_ASSIGNMENT>
P2, -55.60, 2
P9, -55.60, 9

> <NMREDATA_1D_31P>
-55.60, L=P2
-55.60, L=P9

$$$$
