
 OpenBabel08102311332D

 54 54  0  0  0  0  0  0  0  0999 V2000
   10.4157  -12.8193    0.0000 P   0  0  3  0  0  0  0  0  0  0  0  0
   11.5694  -11.3611    0.0000 S   0  0  0  0  0  0  0  0  0  0  0  0
   11.2649  -14.3255    0.0000 S   0  0  0  0  0  0  0  0  0  0  0  0
   12.2745   -9.3581    0.0000 C   0  0  0  0  0  0  0  0  0  0  0  0
   14.2775   -9.3581    0.0000 C   0  0  0  0  0  0  0  0  0  0  0  0
   11.8258  -16.1683    0.0000 C   0  0  0  0  0  0  0  0  0  0  0  0
   13.8769  -16.1683    0.0000 C   0  0  0  0  0  0  0  0  0  0  0  0
    9.1658  -11.3611    0.0000 S   0  0  0  0  0  0  0  0  0  0  0  0
    9.6145  -14.0211    0.0000 C   0  0  0  0  0  0  0  0  0  0  0  0
   13.9249  -18.5239    0.0000 C   0  0  0  0  0  0  0  0  0  0  0  0
   14.8704  -17.4342    0.0000 S   0  0  0  0  0  0  0  0  0  0  0  0
   15.9760  -18.7322    0.0000 C   0  0  0  0  0  0  0  0  0  0  0  0
   19.1328  -12.9635    0.0000 P   0  0  3  0  0  0  0  0  0  0  0  0
   18.2354  -11.2649    0.0000 S   0  0  0  0  0  0  0  0  0  0  0  0
   17.7227  -14.6781    0.0000 S   0  0  0  0  0  0  0  0  0  0  0  0
   17.3221   -9.2619    0.0000 C   0  0  0  0  0  0  0  0  0  0  0  0
   16.0722   -9.2619    0.0000 C   0  0  0  0  0  0  0  0  0  0  0  0
   17.5784  -16.2805    0.0000 C   0  0  0  0  0  0  0  0  0  0  0  0
   15.9760  -16.3286    0.0000 C   0  0  0  0  0  0  0  0  0  0  0  0
   20.1904  -14.4698    0.0000 S   0  0  0  0  0  0  0  0  0  0  0  0
   20.0301  -11.6655    0.0000 C   0  0  0  0  0  0  0  0  0  0  0  0
   13.9249   -7.4192    0.0000 C   0  0  0  0  0  0  0  0  0  0  0  0
   14.9184   -8.0601    0.0000 S   0  0  0  0  0  0  0  0  0  0  0  0
   16.1202   -7.0666    0.0000 C   0  0  0  0  0  0  0  0  0  0  0  0
   11.6561   -8.4849    0.0000 H   0  0  0  0  0  0  0  0  0  0  0  0
   12.7661   -8.4077    0.0000 H   0  0  0  0  0  0  0  0  0  0  0  0
   15.0990  -10.0437    0.0000 H   0  0  0  0  0  0  0  0  0  0  0  0
   15.2020   -8.8194    0.0000 H   0  0  0  0  0  0  0  0  0  0  0  0
   11.1888  -17.0280    0.0000 H   0  0  0  0  0  0  0  0  0  0  0  0
   12.3071  -17.1239    0.0000 H   0  0  0  0  0  0  0  0  0  0  0  0
   14.6258  -15.4040    0.0000 H   0  0  0  0  0  0  0  0  0  0  0  0
   14.8716  -16.5626    0.0000 H   0  0  0  0  0  0  0  0  0  0  0  0
    8.5467  -13.9522    0.0000 H   0  0  0  0  0  0  0  0  0  0  0  0
   10.0888  -14.9803    0.0000 H   0  0  0  0  0  0  0  0  0  0  0  0
    9.0210  -14.9114    0.0000 H   0  0  0  0  0  0  0  0  0  0  0  0
   13.5609  -19.5301    0.0000 H   0  0  0  0  0  0  0  0  0  0  0  0
   14.8476  -19.0657    0.0000 H   0  0  0  0  0  0  0  0  0  0  0  0
   16.3457  -19.7363    0.0000 H   0  0  0  0  0  0  0  0  0  0  0  0
   17.0294  -18.5444    0.0000 H   0  0  0  0  0  0  0  0  0  0  0  0
   17.9009   -8.3619    0.0000 H   0  0  0  0  0  0  0  0  0  0  0  0
   16.8094   -8.3227    0.0000 H   0  0  0  0  0  0  0  0  0  0  0  0
   15.3074  -10.0102    0.0000 H   0  0  0  0  0  0  0  0  0  0  0  0
   15.0905   -8.8363    0.0000 H   0  0  0  0  0  0  0  0  0  0  0  0
   18.3120  -17.0594    0.0000 H   0  0  0  0  0  0  0  0  0  0  0  0
   17.1690  -17.2691    0.0000 H   0  0  0  0  0  0  0  0  0  0  0  0
   15.2081  -15.5834    0.0000 H   0  0  0  0  0  0  0  0  0  0  0  0
   14.9905  -16.7455    0.0000 H   0  0  0  0  0  0  0  0  0  0  0  0
   21.0966  -11.7524    0.0000 H   0  0  0  0  0  0  0  0  0  0  0  0
   19.5721  -10.6985    0.0000 H   0  0  0  0  0  0  0  0  0  0  0  0
   20.6386  -10.7853    0.0000 H   0  0  0  0  0  0  0  0  0  0  0  0
   13.3306   -6.5294    0.0000 H   0  0  0  0  0  0  0  0  0  0  0  0
   14.6754   -6.6566    0.0000 H   0  0  0  0  0  0  0  0  0  0  0  0
   16.5865   -6.1036    0.0000 H   0  0  0  0  0  0  0  0  0  0  0  0
   17.1604   -7.3172    0.0000 H   0  0  0  0  0  0  0  0  0  0  0  0
  1  2  1  0  0  0  0
  1  3  1  0  0  0  0
  1  8  2  0  0  0  0
  1  9  1  0  0  0  0
  2  4  1  0  0  0  0
  3  6  1  0  0  0  0
  4  5  1  0  0  0  0
  4 25  1  0  0  0  0
  4 26  1  0  0  0  0
  5 22  1  0  0  0  0
  5 27  1  0  0  0  0
  5 28  1  0  0  0  0
  6  7  1  0  0  0  0
  6 29  1  0  0  0  0
  6 30  1  0  0  0  0
  7 10  1  0  0  0  0
  7 31  1  0  0  0  0
  7 32  1  0  0  0  0
  9 33  1  0  0  0  0
  9 34  1  0  0  0  0
  9 35  1  0  0  0  0
 10 11  1  0  0  0  0
 10 36  1  0  0  0  0
 10 37  1  0  0  0  0
 11 12  1  0  0  0  0
 12 19  1  0  0  0  0
 12 38  1  0  0  0  0
 12 39  1  0  0  0  0
 13 14  1  0  0  0  0
 13 15  1  0  0  0  0
 13 20  2  0  0  0  0
 13 21  1  0  0  0  0
 14 16  1  0  0  0  0
 15 18  1  0  0  0  0
 16 17  1  0  0  0  0
 16 40  1  0  0  0  0
 16 41  1  0  0  0  0
 17 42  1  0  0  0  0
 17 43  1  0  0  0  0
 18 19  1  0  0  0  0
 18 44  1  0  0  0  0
 18 45  1  0  0  0  0
 19 46  1  0  0  0  0
 19 47  1  0  0  0  0
 21 48  1  0  0  0  0
 21 49  1  0  0  0  0
 21 50  1  0  0  0  0
 22 23  1  0  0  0  0
 22 51  1  0  0  0  0
 22 52  1  0  0  0  0
 23 24  1  0  0  0  0
 24 17  1  0  0  0  0
 24 53  1  0  0  0  0
 24 54  1  0  0  0  0
M  END
> <NMREDATA_VERSION>
1.1

> <NMREDATA_LEVEL>
0

> <NMREDATA_FORMULA>
C14H30P2S8

> <NMREDATA_SMILES>
CP1(=S)SCCCSCCCSP(=S)(SCCCSCCCS1)C

> <NMREDATA_ASSIGNMENT>
P1, 80.10, 1
P13, 80.10, 13

> <NMREDATA_1D_31P>
80.10, L=P1
80.10, L=P13

$$$$
