
 OpenBabel08102311322D

 44 43  0  0  0  0  0  0  0  0999 V2000
   12.2678   -8.6370    0.0000 C   0  0  0  0  0  0  0  0  0  0  0  0
   12.9728   -7.4158    0.0000 P   0  0  0  0  0  0  0  0  0  0  0  0
   12.9728   -9.8582    0.0000 P   0  0  0  0  0  0  0  0  0  0  0  0
   13.6779  -11.0794    0.0000 O   0  0  0  0  0  0  0  0  0  0  0  0
   11.7516  -10.5633    0.0000 O   0  0  0  0  0  0  0  0  0  0  0  0
   14.1940   -9.1531    0.0000 O   0  0  0  0  0  0  0  0  0  0  0  0
   11.7516   -6.7107    0.0000 O   0  0  0  0  0  0  0  0  0  0  0  0
   14.1940   -8.1209    0.0000 O   0  0  0  0  0  0  0  0  0  0  0  0
   13.6779   -6.1946    0.0000 O   0  0  0  0  0  0  0  0  0  0  0  0
   14.0692   -4.9034    0.0000 C   0  0  0  0  0  0  0  0  0  0  0  0
   13.1049   -3.8745    0.0000 C   0  0  0  0  0  0  0  0  0  0  0  0
   15.8799   -7.2589    0.0000 C   0  0  0  0  0  0  0  0  0  0  0  0
   15.9517   -5.8506    0.0000 C   0  0  0  0  0  0  0  0  0  0  0  0
   15.3671  -10.1112    0.0000 C   0  0  0  0  0  0  0  0  0  0  0  0
   15.1407  -11.5030    0.0000 C   0  0  0  0  0  0  0  0  0  0  0  0
   10.2234  -12.0661    0.0000 C   0  0  0  0  0  0  0  0  0  0  0  0
    8.8644  -11.6898    0.0000 C   0  0  0  0  0  0  0  0  0  0  0  0
   10.6240   -8.4127    0.0000 C   0  0  0  0  0  0  0  0  0  0  0  0
   10.0905   -7.1073    0.0000 O   0  0  0  0  0  0  0  0  0  0  0  0
    9.7603   -9.5273    0.0000 C   0  0  0  0  0  0  0  0  0  0  0  0
   11.6712   -9.5253    0.0000 H   0  0  0  0  0  0  0  0  0  0  0  0
   15.1112   -4.6601    0.0000 H   0  0  0  0  0  0  0  0  0  0  0  0
   14.3795   -3.8794    0.0000 H   0  0  0  0  0  0  0  0  0  0  0  0
   13.4152   -2.8505    0.0000 H   0  0  0  0  0  0  0  0  0  0  0  0
   12.0629   -4.1178    0.0000 H   0  0  0  0  0  0  0  0  0  0  0  0
   12.3732   -3.0938    0.0000 H   0  0  0  0  0  0  0  0  0  0  0  0
   16.7781   -7.8404    0.0000 H   0  0  0  0  0  0  0  0  0  0  0  0
   16.8326   -6.7718    0.0000 H   0  0  0  0  0  0  0  0  0  0  0  0
   16.9044   -5.3635    0.0000 H   0  0  0  0  0  0  0  0  0  0  0  0
   15.0535   -5.2691    0.0000 H   0  0  0  0  0  0  0  0  0  0  0  0
   16.0062   -4.7820    0.0000 H   0  0  0  0  0  0  0  0  0  0  0  0
   16.3676   -9.7319    0.0000 H   0  0  0  0  0  0  0  0  0  0  0  0
   16.1958  -10.7880    0.0000 H   0  0  0  0  0  0  0  0  0  0  0  0
   14.1402  -11.8823    0.0000 H   0  0  0  0  0  0  0  0  0  0  0  0
   15.9694  -12.1798    0.0000 H   0  0  0  0  0  0  0  0  0  0  0  0
   14.9689  -12.5591    0.0000 H   0  0  0  0  0  0  0  0  0  0  0  0
   10.4917  -13.1019    0.0000 H   0  0  0  0  0  0  0  0  0  0  0  0
    9.4605  -12.8164    0.0000 H   0  0  0  0  0  0  0  0  0  0  0  0
    8.5961  -10.6540    0.0000 H   0  0  0  0  0  0  0  0  0  0  0  0
    8.1015  -12.4401    0.0000 H   0  0  0  0  0  0  0  0  0  0  0  0
    7.8332  -11.4043    0.0000 H   0  0  0  0  0  0  0  0  0  0  0  0
    8.7001   -9.3826    0.0000 H   0  0  0  0  0  0  0  0  0  0  0  0
   10.1651  -10.5178    0.0000 H   0  0  0  0  0  0  0  0  0  0  0  0
    9.1049  -10.3731    0.0000 H   0  0  0  0  0  0  0  0  0  0  0  0
  1  2  1  0  0  0  0
  1  3  1  0  0  0  0
  1 18  1  0  0  0  0
  1 21  1  0  0  0  0
  2  7  2  0  0  0  0
  2  8  1  0  0  0  0
  2  9  1  0  0  0  0
  3  4  2  0  0  0  0
  3  5  1  0  0  0  0
  3  6  1  0  0  0  0
  5 16  1  0  0  0  0
  6 14  1  0  0  0  0
  8 12  1  0  0  0  0
  9 10  1  0  0  0  0
 10 11  1  0  0  0  0
 10 22  1  0  0  0  0
 10 23  1  0  0  0  0
 11 24  1  0  0  0  0
 11 25  1  0  0  0  0
 11 26  1  0  0  0  0
 12 13  1  0  0  0  0
 12 27  1  0  0  0  0
 12 28  1  0  0  0  0
 13 29  1  0  0  0  0
 13 30  1  0  0  0  0
 13 31  1  0  0  0  0
 14 15  1  0  0  0  0
 14 32  1  0  0  0  0
 14 33  1  0  0  0  0
 15 34  1  0  0  0  0
 15 35  1  0  0  0  0
 15 36  1  0  0  0  0
 16 17  1  0  0  0  0
 16 37  1  0  0  0  0
 16 38  1  0  0  0  0
 17 39  1  0  0  0  0
 17 40  1  0  0  0  0
 17 41  1  0  0  0  0
 18 19  2  0  0  0  0
 18 20  1  0  0  0  0
 20 42  1  0  0  0  0
 20 43  1  0  0  0  0
 20 44  1  0  0  0  0
M  END
> <NMREDATA_VERSION>
1.1

> <NMREDATA_LEVEL>
0

> <NMREDATA_FORMULA>
C11H24O7P2

> <NMREDATA_SMILES>
CCOP(=O)(C(P(=O)(OCC)OCC)C(=O)C)OCC

> <NMREDATA_ASSIGNMENT>
P2, 13.00, 2
P3, 13.00, 3

> <NMREDATA_1D_31P>
13.00, L=P2
13.00, L=P3

$$$$
