
 OpenBabel06122522452D

 41 40  0  0  0  0  0  0  0  0999 V2000
    6.0681   -8.5108    0.0000 C   0  0  0  0  0  0  0  0  0  0  0  0
    6.7331   -9.6626    0.0000 C   0  0  0  0  0  0  0  0  0  0  0  0
    7.2199   -7.8458    0.0000 C   0  0  0  0  0  0  0  0  0  0  0  0
    4.9163   -9.1758    0.0000 C   0  0  0  0  0  0  0  0  0  0  0  0
    5.4031   -5.0553    0.0000 P   0  0  3  0  0  0  0  0  0  0  0  0
    6.0681   -6.2071    0.0000 N   0  0  0  0  0  0  0  0  0  0  0  0
    7.3981   -6.2071    0.0000 C   0  0  0  0  0  0  0  0  0  0  0  0
    8.0631   -5.0553    0.0000 C   0  0  0  0  0  0  0  0  0  0  0  0
    8.0631   -7.3590    0.0000 C   0  0  0  0  0  0  0  0  0  0  0  0
    5.4031   -7.3590    0.0000 P   0  0  3  0  0  0  0  0  0  0  0  0
    4.0731   -7.3590    0.0000 K   0  0  0  0  0  0  0  0  0  0  0  0
    4.0731   -5.0553    0.0000 K   0  0  0  0  0  0  0  0  0  0  0  0
    6.0681   -3.9035    0.0000 C   0  0  0  0  0  0  0  0  0  0  0  0
    7.2199   -4.5685    0.0000 C   0  0  0  0  0  0  0  0  0  0  0  0
    4.9163   -3.2385    0.0000 C   0  0  0  0  0  0  0  0  0  0  0  0
    6.7331   -2.7517    0.0000 C   0  0  0  0  0  0  0  0  0  0  0  0
    6.1981  -10.5892    0.0000 H   0  0  0  0  0  0  0  0  0  0  0  0
    7.8031   -9.6626    0.0000 H   0  0  0  0  0  0  0  0  0  0  0  0
    7.2681  -10.5892    0.0000 H   0  0  0  0  0  0  0  0  0  0  0  0
    8.1465   -8.3808    0.0000 H   0  0  0  0  0  0  0  0  0  0  0  0
    7.2199   -6.7758    0.0000 H   0  0  0  0  0  0  0  0  0  0  0  0
    8.1465   -7.3108    0.0000 H   0  0  0  0  0  0  0  0  0  0  0  0
    3.9897   -8.6408    0.0000 H   0  0  0  0  0  0  0  0  0  0  0  0
    4.9163  -10.2458    0.0000 H   0  0  0  0  0  0  0  0  0  0  0  0
    3.9897   -9.7108    0.0000 H   0  0  0  0  0  0  0  0  0  0  0  0
    6.8631   -7.1337    0.0000 H   0  0  0  0  0  0  0  0  0  0  0  0
    9.1331   -5.0553    0.0000 H   0  0  0  0  0  0  0  0  0  0  0  0
    7.5281   -4.1287    0.0000 H   0  0  0  0  0  0  0  0  0  0  0  0
    8.5981   -4.1287    0.0000 H   0  0  0  0  0  0  0  0  0  0  0  0
    7.5281   -8.2856    0.0000 H   0  0  0  0  0  0  0  0  0  0  0  0
    9.1331   -7.3590    0.0000 H   0  0  0  0  0  0  0  0  0  0  0  0
    8.5981   -8.2857    0.0000 H   0  0  0  0  0  0  0  0  0  0  0  0
    7.2199   -5.6385    0.0000 H   0  0  0  0  0  0  0  0  0  0  0  0
    8.1465   -4.0335    0.0000 H   0  0  0  0  0  0  0  0  0  0  0  0
    8.1465   -5.1035    0.0000 H   0  0  0  0  0  0  0  0  0  0  0  0
    4.9163   -2.1685    0.0000 H   0  0  0  0  0  0  0  0  0  0  0  0
    3.9897   -3.7735    0.0000 H   0  0  0  0  0  0  0  0  0  0  0  0
    3.9897   -2.7035    0.0000 H   0  0  0  0  0  0  0  0  0  0  0  0
    7.8031   -2.7517    0.0000 H   0  0  0  0  0  0  0  0  0  0  0  0
    6.1981   -1.8251    0.0000 H   0  0  0  0  0  0  0  0  0  0  0  0
    7.2681   -1.8251    0.0000 H   0  0  0  0  0  0  0  0  0  0  0  0
  1  2  1  0  0  0  0
  1  3  1  0  0  0  0
  1  4  1  0  0  0  0
  1 10  1  0  0  0  0
  2 17  1  0  0  0  0
  2 18  1  0  0  0  0
  2 19  1  0  0  0  0
  3 20  1  0  0  0  0
  3 21  1  0  0  0  0
  3 22  1  0  0  0  0
  4 23  1  0  0  0  0
  4 24  1  0  0  0  0
  4 25  1  0  0  0  0
  5  6  1  0  0  0  0
  5 12  1  0  0  0  0
  5 13  1  0  0  0  0
  6  7  1  0  0  0  0
  6 10  1  0  0  0  0
  7  8  1  0  0  0  0
  7  9  1  0  0  0  0
  7 26  1  0  0  0  0
  8 27  1  0  0  0  0
  8 28  1  0  0  0  0
  8 29  1  0  0  0  0
  9 30  1  0  0  0  0
  9 31  1  0  0  0  0
  9 32  1  0  0  0  0
 10 11  1  0  0  0  0
 13 14  1  0  0  0  0
 13 15  1  0  0  0  0
 13 16  1  0  0  0  0
 14 33  1  0  0  0  0
 14 34  1  0  0  0  0
 14 35  1  0  0  0  0
 15 36  1  0  0  0  0
 15 37  1  0  0  0  0
 15 38  1  0  0  0  0
 16 39  1  0  0  0  0
 16 40  1  0  0  0  0
 16 41  1  0  0  0  0
M  END
> <NMREDATA_VERSION>
1.1

> <NMREDATA_LEVEL>
0

> <NMREDATA_FORMULA>
C11H25K2NP2

> <NMREDATA_SMILES>
CC(N(P(C(C)(C)C)[K])P(C(C)(C)C)[K])C

> <NMREDATA_ASSIGNMENT>
P5, 20.30, 5
P10, 20.30, 10

> <NMREDATA_1D_31P>
20.30, L=P5
20.30, L=P10

$$$$
