
 OpenBabel08102311342D

 54 56  0  0  0  0  0  0  0  0999 V2000
   24.8053  -16.8574    0.0000 Li   0  3  0  0  0  0  0  0  0  0  0  0
   21.5684  -26.6641    0.0000 P    0  0  0  0  0  0  0  0  0  0  0  0
   18.1713  -24.4528    0.0000 C    0  0  0  0  0  0  0  0  0  0  0  0
   17.4342  -27.4172    0.0000 C    0  0  0  0  0  0  0  0  0  0  0  0
   19.3232  -22.4578    0.0000 C    0  0  0  0  0  0  0  0  0  0  0  0
   19.3232  -23.7878    0.0000 C    0  0  0  0  0  0  0  0  0  0  0  0
   18.1713  -21.7928    0.0000 C    0  0  0  0  0  0  0  0  0  0  0  0
   17.0196  -22.4578    0.0000 C    0  0  0  0  0  0  0  0  0  0  0  0
   17.0196  -23.7878    0.0000 C    0  0  0  0  0  0  0  0  0  0  0  0
   18.5861  -28.0822    0.0000 C    0  0  0  0  0  0  0  0  0  0  0  0
   18.5861  -29.4122    0.0000 C    0  0  0  0  0  0  0  0  0  0  0  0
   17.4342  -30.0772    0.0000 C    0  0  0  0  0  0  0  0  0  0  0  0
   16.2824  -28.0822    0.0000 C    0  0  0  0  0  0  0  0  0  0  0  0
   16.2824  -29.4122    0.0000 C    0  0  0  0  0  0  0  0  0  0  0  0
   24.7412  -24.2284    0.0000 O    0  0  0  0  0  0  0  0  0  0  0  0
   16.2164  -16.6330    0.0000 P    0  0  0  0  0  0  0  0  0  0  0  0
   12.8193  -14.4217    0.0000 C    0  0  0  0  0  0  0  0  0  0  0  0
   12.0822  -17.3862    0.0000 C    0  0  0  0  0  0  0  0  0  0  0  0
   13.9712  -12.4267    0.0000 C    0  0  0  0  0  0  0  0  0  0  0  0
   13.9712  -13.7567    0.0000 C    0  0  0  0  0  0  0  0  0  0  0  0
   12.8193  -11.7617    0.0000 C    0  0  0  0  0  0  0  0  0  0  0  0
   11.6675  -12.4267    0.0000 C    0  0  0  0  0  0  0  0  0  0  0  0
   11.6675  -13.7567    0.0000 C    0  0  0  0  0  0  0  0  0  0  0  0
   13.2341  -18.0512    0.0000 C    0  0  0  0  0  0  0  0  0  0  0  0
   13.2341  -19.3812    0.0000 C    0  0  0  0  0  0  0  0  0  0  0  0
   12.0822  -20.0462    0.0000 C    0  0  0  0  0  0  0  0  0  0  0  0
   10.9304  -18.0512    0.0000 C    0  0  0  0  0  0  0  0  0  0  0  0
   10.9304  -19.3812    0.0000 C    0  0  0  0  0  0  0  0  0  0  0  0
   19.3892  -14.1974    0.0000 O    0  0  0  0  0  0  0  0  0  0  0  0
   18.1233  -19.3411    0.0000 C    0  5  0  0  0  0  0  0  0  0  0  0
   15.8478  -20.5108    0.0000 C    0  0  0  0  0  0  0  0  0  0  0  0
   20.2169  -21.9418    0.0000 H    0  0  0  0  0  0  0  0  0  0  0  0
   20.2169  -24.3038    0.0000 H    0  0  0  0  0  0  0  0  0  0  0  0
   18.1713  -20.7608    0.0000 H    0  0  0  0  0  0  0  0  0  0  0  0
   16.1259  -21.9418    0.0000 H    0  0  0  0  0  0  0  0  0  0  0  0
   16.1259  -24.3038    0.0000 H    0  0  0  0  0  0  0  0  0  0  0  0
   19.4798  -27.5662    0.0000 H    0  0  0  0  0  0  0  0  0  0  0  0
   19.4798  -29.9282    0.0000 H    0  0  0  0  0  0  0  0  0  0  0  0
   17.4342  -31.1092    0.0000 H    0  0  0  0  0  0  0  0  0  0  0  0
   15.3887  -27.5662    0.0000 H    0  0  0  0  0  0  0  0  0  0  0  0
   15.3887  -29.9282    0.0000 H    0  0  0  0  0  0  0  0  0  0  0  0
   14.8649  -11.9107    0.0000 H    0  0  0  0  0  0  0  0  0  0  0  0
   14.8649  -14.2727    0.0000 H    0  0  0  0  0  0  0  0  0  0  0  0
   12.8193  -10.7297    0.0000 H    0  0  0  0  0  0  0  0  0  0  0  0
   10.7738  -11.9107    0.0000 H    0  0  0  0  0  0  0  0  0  0  0  0
   10.7738  -14.2727    0.0000 H    0  0  0  0  0  0  0  0  0  0  0  0
   14.1278  -17.5352    0.0000 H    0  0  0  0  0  0  0  0  0  0  0  0
   14.1278  -19.8972    0.0000 H    0  0  0  0  0  0  0  0  0  0  0  0
   12.0822  -21.0782    0.0000 H    0  0  0  0  0  0  0  0  0  0  0  0
   10.0367  -17.5352    0.0000 H    0  0  0  0  0  0  0  0  0  0  0  0
   10.0367  -19.8972    0.0000 H    0  0  0  0  0  0  0  0  0  0  0  0
   14.9483  -19.9313    0.0000 H    0  0  0  0  0  0  0  0  0  0  0  0
   15.7956  -21.5795    0.0000 H    0  0  0  0  0  0  0  0  0  0  0  0
   14.8962  -21.0000    0.0000 H    0  0  0  0  0  0  0  0  0  0  0  0
  2  3  1  0  0  0  0
  2  4  1  0  0  0  0
  2 15  2  0  0  0  0
  2 30  1  0  0  0  0
  3  9  1  0  0  0  0
  4 13  1  0  0  0  0
  5  6  1  0  0  0  0
  5  7  2  0  0  0  0
  5 32  1  0  0  0  0
  6  3  2  0  0  0  0
  6 33  1  0  0  0  0
  7  8  1  0  0  0  0
  7 34  1  0  0  0  0
  8  9  2  0  0  0  0
  8 35  1  0  0  0  0
  9 36  1  0  0  0  0
 10 11  1  0  0  0  0
 10  4  2  0  0  0  0
 10 37  1  0  0  0  0
 11 12  2  0  0  0  0
 11 38  1  0  0  0  0
 12 14  1  0  0  0  0
 12 39  1  0  0  0  0
 13 14  2  0  0  0  0
 13 40  1  0  0  0  0
 14 41  1  0  0  0  0
 16 17  1  0  0  0  0
 16 18  1  0  0  0  0
 16 29  2  0  0  0  0
 16 30  1  0  0  0  0
 17 23  1  0  0  0  0
 18 27  1  0  0  0  0
 19 20  1  0  0  0  0
 19 21  2  0  0  0  0
 19 42  1  0  0  0  0
 20 17  2  0  0  0  0
 20 43  1  0  0  0  0
 21 22  1  0  0  0  0
 21 44  1  0  0  0  0
 22 23  2  0  0  0  0
 22 45  1  0  0  0  0
 23 46  1  0  0  0  0
 24 25  1  0  0  0  0
 24 18  2  0  0  0  0
 24 47  1  0  0  0  0
 25 26  2  0  0  0  0
 25 48  1  0  0  0  0
 26 28  1  0  0  0  0
 26 49  1  0  0  0  0
 27 28  2  0  0  0  0
 27 50  1  0  0  0  0
 28 51  1  0  0  0  0
 30 31  1  0  0  0  0
 31 52  1  0  0  0  0
 31 53  1  0  0  0  0
 31 54  1  0  0  0  0
M  END
> <NMREDATA_VERSION>
1.1

> <NMREDATA_LEVEL>
0

> <NMREDATA_FORMULA>
C26H25LiO2P2

> <NMREDATA_SMILES>
C[C-](P(=O)(c1ccccc1)c1ccccc1)P(=O)(c1ccccc1)c1ccccc1.[Li+]

> <NMREDATA_ASSIGNMENT>
P2, 43.50, 2
P16, 43.50, 16

> <NMREDATA_1D_31P>
43.50, L=P2
43.50, L=P16

$$$$
