
 OpenBabel08102311332D

 60 60  0  0  0  0  0  0  0  0999 V2000
    9.9872  -13.9971    0.0000 P   0  0  3  0  0  0  0  0  0  0  0  0
   10.2696  -15.4276    0.0000 S   0  0  0  0  0  0  0  0  0  0  0  0
   10.2696  -12.5665    0.0000 S   0  0  0  0  0  0  0  0  0  0  0  0
   11.7428  -15.8347    0.0000 C   0  0  0  0  0  0  0  0  0  0  0  0
    8.6245  -13.4717    0.0000 C   0  0  0  0  0  0  0  0  0  0  0  0
    8.6245  -14.5224    0.0000 O   0  0  0  0  0  0  0  0  0  0  0  0
   12.2941  -17.4521    0.0000 C   0  0  0  0  0  0  0  0  0  0  0  0
   13.7166  -16.0317    0.0000 S   0  0  0  0  0  0  0  0  0  0  0  0
   15.1552  -17.4521    0.0000 C   0  0  0  0  0  0  0  0  0  0  0  0
   17.1796  -12.5665    0.0000 S   0  0  0  0  0  0  0  0  0  0  0  0
   17.4621  -13.9971    0.0000 P   0  0  3  0  0  0  0  0  0  0  0  0
   15.5623  -16.0270    0.0000 C   0  0  0  0  0  0  0  0  0  0  0  0
   17.1796  -15.4276    0.0000 S   0  0  0  0  0  0  0  0  0  0  0  0
   18.8248  -14.5224    0.0000 O   0  0  0  0  0  0  0  0  0  0  0  0
   18.8248  -13.4717    0.0000 C   0  0  0  0  0  0  0  0  0  0  0  0
   11.8389  -11.7588    0.0000 C   0  0  0  0  0  0  0  0  0  0  0  0
   12.2941  -10.5420    0.0000 C   0  0  0  0  0  0  0  0  0  0  0  0
   13.7166  -11.5778    0.0000 S   0  0  0  0  0  0  0  0  0  0  0  0
   15.1552  -10.5420    0.0000 C   0  0  0  0  0  0  0  0  0  0  0  0
   15.7225  -12.0633    0.0000 C   0  0  0  0  0  0  0  0  0  0  0  0
    8.3985  -12.0312    0.0000 C   0  0  0  0  0  0  0  0  0  0  0  0
    7.2589  -12.8674    0.0000 C   0  0  0  0  0  0  0  0  0  0  0  0
    7.2108  -13.9249    0.0000 C   0  0  0  0  0  0  0  0  0  0  0  0
   19.9593  -14.3878    0.0000 C   0  0  0  0  0  0  0  0  0  0  0  0
   19.0508  -12.0312    0.0000 C   0  0  0  0  0  0  0  0  0  0  0  0
   20.1904  -13.3160    0.0000 C   0  0  0  0  0  0  0  0  0  0  0  0
   12.4768  -15.0561    0.0000 H   0  0  0  0  0  0  0  0  0  0  0  0
   12.7885  -16.0616    0.0000 H   0  0  0  0  0  0  0  0  0  0  0  0
   12.0514  -18.4942    0.0000 H   0  0  0  0  0  0  0  0  0  0  0  0
   13.2293  -17.9721    0.0000 H   0  0  0  0  0  0  0  0  0  0  0  0
   15.4269  -18.4870    0.0000 H   0  0  0  0  0  0  0  0  0  0  0  0
   16.2251  -17.4636    0.0000 H   0  0  0  0  0  0  0  0  0  0  0  0
   14.7773  -15.2999    0.0000 H   0  0  0  0  0  0  0  0  0  0  0  0
   14.5319  -16.3152    0.0000 H   0  0  0  0  0  0  0  0  0  0  0  0
   12.6386  -12.4697    0.0000 H   0  0  0  0  0  0  0  0  0  0  0  0
   12.8775  -11.5013    0.0000 H   0  0  0  0  0  0  0  0  0  0  0  0
   11.9864   -9.5172    0.0000 H   0  0  0  0  0  0  0  0  0  0  0  0
   13.1671   -9.9233    0.0000 H   0  0  0  0  0  0  0  0  0  0  0  0
   15.4662   -9.5182    0.0000 H   0  0  0  0  0  0  0  0  0  0  0  0
   16.2247  -10.5088    0.0000 H   0  0  0  0  0  0  0  0  0  0  0  0
   14.9752  -12.8291    0.0000 H   0  0  0  0  0  0  0  0  0  0  0  0
   15.9691  -13.1045    0.0000 H   0  0  0  0  0  0  0  0  0  0  0  0
    9.2310  -11.3590    0.0000 H   0  0  0  0  0  0  0  0  0  0  0  0
    7.4001  -11.6463    0.0000 H   0  0  0  0  0  0  0  0  0  0  0  0
    8.2327  -10.9741    0.0000 H   0  0  0  0  0  0  0  0  0  0  0  0
    7.1446  -11.8035    0.0000 H   0  0  0  0  0  0  0  0  0  0  0  0
    6.3947  -13.4983    0.0000 H   0  0  0  0  0  0  0  0  0  0  0  0
    6.2804  -12.4344    0.0000 H   0  0  0  0  0  0  0  0  0  0  0  0
    6.4185  -13.2058    0.0000 H   0  0  0  0  0  0  0  0  0  0  0  0
    6.9842  -14.9706    0.0000 H   0  0  0  0  0  0  0  0  0  0  0  0
    6.1919  -14.2515    0.0000 H   0  0  0  0  0  0  0  0  0  0  0  0
   19.7934  -15.4449    0.0000 H   0  0  0  0  0  0  0  0  0  0  0  0
   20.9577  -14.0030    0.0000 H   0  0  0  0  0  0  0  0  0  0  0  0
   20.7918  -15.0600    0.0000 H   0  0  0  0  0  0  0  0  0  0  0  0
   20.0492  -11.6463    0.0000 H   0  0  0  0  0  0  0  0  0  0  0  0
   18.2183  -11.3590    0.0000 H   0  0  0  0  0  0  0  0  0  0  0  0
   19.2166  -10.9741    0.0000 H   0  0  0  0  0  0  0  0  0  0  0  0
   20.8269  -14.1761    0.0000 H   0  0  0  0  0  0  0  0  0  0  0  0
   20.6170  -12.3347    0.0000 H   0  0  0  0  0  0  0  0  0  0  0  0
   21.2535  -13.1948    0.0000 H   0  0  0  0  0  0  0  0  0  0  0  0
  1  2  1  0  0  0  0
  1  3  1  0  0  0  0
  1  5  1  0  0  0  0
  1  6  2  0  0  0  0
  2  4  1  0  0  0  0
  3 16  1  0  0  0  0
  4  7  1  0  0  0  0
  4 27  1  0  0  0  0
  4 28  1  0  0  0  0
  5 21  1  0  0  0  0
  5 22  1  0  0  0  0
  5 23  1  0  0  0  0
  7  8  1  0  0  0  0
  7 29  1  0  0  0  0
  7 30  1  0  0  0  0
  8  9  1  0  0  0  0
  9 12  1  0  0  0  0
  9 31  1  0  0  0  0
  9 32  1  0  0  0  0
 10 11  1  0  0  0  0
 11 14  2  0  0  0  0
 11 15  1  0  0  0  0
 12 13  1  0  0  0  0
 12 33  1  0  0  0  0
 12 34  1  0  0  0  0
 13 11  1  0  0  0  0
 15 24  1  0  0  0  0
 15 25  1  0  0  0  0
 15 26  1  0  0  0  0
 16 17  1  0  0  0  0
 16 35  1  0  0  0  0
 16 36  1  0  0  0  0
 17 18  1  0  0  0  0
 17 37  1  0  0  0  0
 17 38  1  0  0  0  0
 18 19  1  0  0  0  0
 19 20  1  0  0  0  0
 19 39  1  0  0  0  0
 19 40  1  0  0  0  0
 20 10  1  0  0  0  0
 20 41  1  0  0  0  0
 20 42  1  0  0  0  0
 21 43  1  0  0  0  0
 21 44  1  0  0  0  0
 21 45  1  0  0  0  0
 22 46  1  0  0  0  0
 22 47  1  0  0  0  0
 22 48  1  0  0  0  0
 23 49  1  0  0  0  0
 23 50  1  0  0  0  0
 23 51  1  0  0  0  0
 24 52  1  0  0  0  0
 24 53  1  0  0  0  0
 24 54  1  0  0  0  0
 25 55  1  0  0  0  0
 25 56  1  0  0  0  0
 25 57  1  0  0  0  0
 26 58  1  0  0  0  0
 26 59  1  0  0  0  0
 26 60  1  0  0  0  0
M  END
> <NMREDATA_VERSION>
1.1

> <NMREDATA_LEVEL>
0

> <NMREDATA_FORMULA>
C16H34O2P2S6

> <NMREDATA_SMILES>
O=P1(SCCSCCSP(=O)(SCCSCCS1)C(C)(C)C)C(C)(C)C

> <NMREDATA_ASSIGNMENT>
P1, 83.80, 1
P11, 83.80, 11

> <NMREDATA_1D_31P>
83.80, L=P1
83.80, L=P11

$$$$
