
 OpenBabel08102311332D

 52 54  0  0  0  0  0  0  0  0999 V2000
   15.5274  -14.3896    0.0000 P   0  0  3  0  0  0  0  0  0  0  0  0
   15.1428   -9.4702    0.0000 O   0  0  0  0  0  0  0  0  0  0  0  0
   18.9245  -14.7582    0.0000 O   0  0  0  0  0  0  0  0  0  0  0  0
   19.6776  -11.7296    0.0000 C   0  0  0  0  0  0  0  0  0  0  0  0
   22.9579  -10.7869    0.0000 C   0  0  0  0  0  0  0  0  0  0  0  0
   17.0336  -17.4182    0.0000 C   0  0  0  0  0  0  0  0  0  0  0  0
   19.3373  -17.4182    0.0000 C   0  0  0  0  0  0  0  0  0  0  0  0
   19.3373  -18.7482    0.0000 C   0  0  0  0  0  0  0  0  0  0  0  0
   18.1854  -16.7532    0.0000 C   0  0  0  0  0  0  0  0  0  0  0  0
   18.1854  -19.4132    0.0000 C   0  0  0  0  0  0  0  0  0  0  0  0
   17.0336  -18.7482    0.0000 C   0  0  0  0  0  0  0  0  0  0  0  0
    7.1929  -17.7787    0.0000 C   0  0  0  0  0  0  0  0  0  0  0  0
    7.1929  -19.1087    0.0000 C   0  0  0  0  0  0  0  0  0  0  0  0
    6.0410  -17.1137    0.0000 C   0  0  0  0  0  0  0  0  0  0  0  0
    6.0410  -19.7737    0.0000 C   0  0  0  0  0  0  0  0  0  0  0  0
    4.8892  -17.7787    0.0000 C   0  0  0  0  0  0  0  0  0  0  0  0
    4.8892  -19.1087    0.0000 C   0  0  0  0  0  0  0  0  0  0  0  0
   14.9345  -24.8053    0.0000 P   0  0  3  0  0  0  0  0  0  0  0  0
   14.5499  -19.8859    0.0000 O   0  0  0  0  0  0  0  0  0  0  0  0
   18.3316  -25.1739    0.0000 O   0  0  0  0  0  0  0  0  0  0  0  0
   19.0847  -22.1453    0.0000 C   0  0  0  0  0  0  0  0  0  0  0  0
   22.3650  -21.2025    0.0000 C   0  0  0  0  0  0  0  0  0  0  0  0
   16.4407  -27.8339    0.0000 C   0  0  0  0  0  0  0  0  0  0  0  0
   18.7444  -27.8339    0.0000 C   0  0  0  0  0  0  0  0  0  0  0  0
   18.7444  -29.1639    0.0000 C   0  0  0  0  0  0  0  0  0  0  0  0
   17.5925  -27.1689    0.0000 C   0  0  0  0  0  0  0  0  0  0  0  0
   17.5925  -29.8289    0.0000 C   0  0  0  0  0  0  0  0  0  0  0  0
   16.4407  -29.1639    0.0000 C   0  0  0  0  0  0  0  0  0  0  0  0
   18.9075  -10.9868    0.0000 H   0  0  0  0  0  0  0  0  0  0  0  0
   19.9358  -10.6912    0.0000 H   0  0  0  0  0  0  0  0  0  0  0  0
   23.7280  -11.5297    0.0000 H   0  0  0  0  0  0  0  0  0  0  0  0
   23.2161   -9.7485    0.0000 H   0  0  0  0  0  0  0  0  0  0  0  0
   23.9863  -10.4914    0.0000 H   0  0  0  0  0  0  0  0  0  0  0  0
   20.2310  -16.9022    0.0000 H   0  0  0  0  0  0  0  0  0  0  0  0
   20.2310  -19.2642    0.0000 H   0  0  0  0  0  0  0  0  0  0  0  0
   18.1854  -15.7212    0.0000 H   0  0  0  0  0  0  0  0  0  0  0  0
   18.1854  -20.4452    0.0000 H   0  0  0  0  0  0  0  0  0  0  0  0
   16.1399  -19.2642    0.0000 H   0  0  0  0  0  0  0  0  0  0  0  0
    6.0410  -16.0817    0.0000 H   0  0  0  0  0  0  0  0  0  0  0  0
    6.0410  -20.8057    0.0000 H   0  0  0  0  0  0  0  0  0  0  0  0
    3.9955  -17.2627    0.0000 H   0  0  0  0  0  0  0  0  0  0  0  0
    3.9955  -19.6247    0.0000 H   0  0  0  0  0  0  0  0  0  0  0  0
   18.3145  -21.4025    0.0000 H   0  0  0  0  0  0  0  0  0  0  0  0
   19.3429  -21.1069    0.0000 H   0  0  0  0  0  0  0  0  0  0  0  0
   23.1352  -21.9453    0.0000 H   0  0  0  0  0  0  0  0  0  0  0  0
   22.6232  -20.1641    0.0000 H   0  0  0  0  0  0  0  0  0  0  0  0
   23.3934  -20.9069    0.0000 H   0  0  0  0  0  0  0  0  0  0  0  0
   19.6381  -27.3179    0.0000 H   0  0  0  0  0  0  0  0  0  0  0  0
   19.6381  -29.6799    0.0000 H   0  0  0  0  0  0  0  0  0  0  0  0
   17.5925  -26.1369    0.0000 H   0  0  0  0  0  0  0  0  0  0  0  0
   17.5925  -30.8609    0.0000 H   0  0  0  0  0  0  0  0  0  0  0  0
   15.5470  -29.6799    0.0000 H   0  0  0  0  0  0  0  0  0  0  0  0
  1  2  2  0  0  0  0
  1  3  1  0  0  0  0
  1  6  1  0  0  0  0
  1 12  1  0  0  0  0
  3  4  1  0  0  0  0
  4  5  1  0  0  0  0
  4 29  1  0  0  0  0
  4 30  1  0  0  0  0
  5 31  1  0  0  0  0
  5 32  1  0  0  0  0
  5 33  1  0  0  0  0
  6 11  2  0  0  0  0
  7  8  1  0  0  0  0
  7  9  2  0  0  0  0
  7 34  1  0  0  0  0
  8 10  2  0  0  0  0
  8 35  1  0  0  0  0
  9  6  1  0  0  0  0
  9 36  1  0  0  0  0
 10 11  1  0  0  0  0
 10 37  1  0  0  0  0
 11 38  1  0  0  0  0
 12 13  1  0  0  0  0
 12 14  2  0  0  0  0
 13 15  2  0  0  0  0
 13 18  1  0  0  0  0
 14 16  1  0  0  0  0
 14 39  1  0  0  0  0
 15 17  1  0  0  0  0
 15 40  1  0  0  0  0
 16 17  2  0  0  0  0
 16 41  1  0  0  0  0
 17 42  1  0  0  0  0
 18 19  2  0  0  0  0
 18 20  1  0  0  0  0
 18 23  1  0  0  0  0
 20 21  1  0  0  0  0
 21 22  1  0  0  0  0
 21 43  1  0  0  0  0
 21 44  1  0  0  0  0
 22 45  1  0  0  0  0
 22 46  1  0  0  0  0
 22 47  1  0  0  0  0
 23 28  2  0  0  0  0
 24 25  1  0  0  0  0
 24 26  2  0  0  0  0
 24 48  1  0  0  0  0
 25 27  2  0  0  0  0
 25 49  1  0  0  0  0
 26 23  1  0  0  0  0
 26 50  1  0  0  0  0
 27 28  1  0  0  0  0
 27 51  1  0  0  0  0
 28 52  1  0  0  0  0
M  END
> <NMREDATA_VERSION>
1.1

> <NMREDATA_LEVEL>
0

> <NMREDATA_FORMULA>
C22H24O4P2

> <NMREDATA_SMILES>
CCOP(=O)(c1ccccc1P(=O)(c1ccccc1)OCC)c1ccccc1

> <NMREDATA_ASSIGNMENT>
P1, 30.40, 1
P18, 30.40, 18

> <NMREDATA_1D_31P>
30.40, L=P1
30.40, L=P18

$$$$
