manual_00027.mol
 OpenBabel05202308372D

 49 51  0  0  0  0  0  0  0  0999 V2000
   -0.3732    1.5847    0.0000 N   0  0  0  0  0  0  0  0  0  0  0  0
    0.1117    0.9173    0.0000 C   0  0  0  0  0  0  0  0  0  0  0  0
   -0.3732    0.2498    0.0000 C   0  0  0  0  0  0  0  0  0  0  0  0
   -1.1578    0.5048    0.0000 C   0  0  0  0  0  0  0  0  0  0  0  0
   -1.8723    0.0923    0.0000 C   0  0  0  0  0  0  0  0  0  0  0  0
   -2.5867    0.5048    0.0000 C   0  0  0  0  0  0  0  0  0  0  0  0
   -2.5867    1.3298    0.0000 C   0  0  0  0  0  0  0  0  0  0  0  0
   -1.8723    1.7423    0.0000 C   0  0  0  0  0  0  0  0  0  0  0  0
   -1.1578    1.3298    0.0000 C   0  0  0  0  0  0  0  0  0  0  0  0
   -0.1182    2.3693    0.0000 C   0  0  0  0  0  0  0  0  0  0  0  0
    0.9367    0.9173    0.0000 C   0  0  0  0  0  0  0  0  0  0  0  0
    1.3492    0.2028    0.0000 C   0  0  0  0  0  0  0  0  0  0  0  0
    2.1742    0.2028    0.0000 C   0  0  0  0  0  0  0  0  0  0  0  0
    2.5867    0.9173    0.0000 C   0  0  0  0  0  0  0  0  0  0  0  0
    2.1742    1.6318    0.0000 C   0  0  0  0  0  0  0  0  0  0  0  0
    1.3492    1.6318    0.0000 C   0  0  0  0  0  0  0  0  0  0  0  0
    0.6892   -0.9403    0.0000 P   0  0  0  0  0  0  0  0  0  0  0  0
    1.1017   -1.6548    0.0000 C   0  0  0  0  0  0  0  0  0  0  0  0
    1.9267   -1.6548    0.0000 C   0  0  0  0  0  0  0  0  0  0  0  0
   -0.1358   -0.9403    0.0000 C   0  0  0  0  0  0  0  0  0  0  0  0
   -0.5483   -0.2259    0.0000 C   0  0  0  0  0  0  0  0  0  0  0  0
   -0.5483   -1.6548    0.0000 C   0  0  0  0  0  0  0  0  0  0  0  0
    0.6892   -2.3693    0.0000 C   0  0  0  0  0  0  0  0  0  0  0  0
   -0.0543   -0.7317    0.0000 H   0  0  0  0  0  0  0  0  0  0  0  0
   -1.8723   -0.9397    0.0000 H   0  0  0  0  0  0  0  0  0  0  0  0
   -3.4804   -0.0112    0.0000 H   0  0  0  0  0  0  0  0  0  0  0  0
   -3.4804    1.8458    0.0000 H   0  0  0  0  0  0  0  0  0  0  0  0
   -1.8723    2.7743    0.0000 H   0  0  0  0  0  0  0  0  0  0  0  0
    0.9284    2.5917    0.0000 H   0  0  0  0  0  0  0  0  0  0  0  0
   -0.8341    3.1645    0.0000 H   0  0  0  0  0  0  0  0  0  0  0  0
    0.2125    3.3869    0.0000 H   0  0  0  0  0  0  0  0  0  0  0  0
    2.6902   -0.6909    0.0000 H   0  0  0  0  0  0  0  0  0  0  0  0
    3.6187    0.9173    0.0000 H   0  0  0  0  0  0  0  0  0  0  0  0
    2.6902    2.5255    0.0000 H   0  0  0  0  0  0  0  0  0  0  0  0
    0.8332    2.5255    0.0000 H   0  0  0  0  0  0  0  0  0  0  0  0
    0.0317   -1.6548    0.0000 H   0  0  0  0  0  0  0  0  0  0  0  0
    2.4617   -2.5814    0.0000 H   0  0  0  0  0  0  0  0  0  0  0  0
    2.4617   -0.7282    0.0000 H   0  0  0  0  0  0  0  0  0  0  0  0
    2.9967   -1.6548    0.0000 H   0  0  0  0  0  0  0  0  0  0  0  0
    0.3992   -1.8669    0.0000 H   0  0  0  0  0  0  0  0  0  0  0  0
   -0.0133    0.7008    0.0000 H   0  0  0  0  0  0  0  0  0  0  0  0
   -1.6183   -0.2259    0.0000 H   0  0  0  0  0  0  0  0  0  0  0  0
   -1.0833    0.7007    0.0000 H   0  0  0  0  0  0  0  0  0  0  0  0
   -1.6183   -1.6548    0.0000 H   0  0  0  0  0  0  0  0  0  0  0  0
   -0.0133   -2.5814    0.0000 H   0  0  0  0  0  0  0  0  0  0  0  0
   -1.0833   -2.5815    0.0000 H   0  0  0  0  0  0  0  0  0  0  0  0
   -0.3808   -2.3693    0.0000 H   0  0  0  0  0  0  0  0  0  0  0  0
    1.2242   -3.2959    0.0000 H   0  0  0  0  0  0  0  0  0  0  0  0
    0.1542   -3.2960    0.0000 H   0  0  0  0  0  0  0  0  0  0  0  0
  1  2  1  0  0  0  0
  1  9  1  0  0  0  0
  1 10  1  0  0  0  0
  2  3  2  0  0  0  0
  2 11  1  0  0  0  0
  3  4  1  0  0  0  0
  3 24  1  0  0  0  0
  4  5  1  0  0  0  0
  4  9  2  0  0  0  0
  5  6  2  0  0  0  0
  5 25  1  0  0  0  0
  6  7  1  0  0  0  0
  6 26  1  0  0  0  0
  7  8  2  0  0  0  0
  7 27  1  0  0  0  0
  8  9  1  0  0  0  0
  8 28  1  0  0  0  0
 10 29  1  0  0  0  0
 10 30  1  0  0  0  0
 10 31  1  0  0  0  0
 11 12  1  0  0  0  0
 11 16  2  0  0  0  0
 12 13  2  0  0  0  0
 12 17  1  0  0  0  0
 13 14  1  0  0  0  0
 13 32  1  0  0  0  0
 14 15  2  0  0  0  0
 14 33  1  0  0  0  0
 15 16  1  0  0  0  0
 15 34  1  0  0  0  0
 16 35  1  0  0  0  0
 17 18  1  0  0  0  0
 17 20  1  0  0  0  0
 18 19  1  0  0  0  0
 18 23  1  0  0  0  0
 18 36  1  0  0  0  0
 19 37  1  0  0  0  0
 19 38  1  0  0  0  0
 19 39  1  0  0  0  0
 20 21  1  0  0  0  0
 20 22  1  0  0  0  0
 20 40  1  0  0  0  0
 21 41  1  0  0  0  0
 21 42  1  0  0  0  0
 21 43  1  0  0  0  0
 22 44  1  0  0  0  0
 22 45  1  0  0  0  0
 22 46  1  0  0  0  0
 23 47  1  0  0  0  0
 23 48  1  0  0  0  0
 23 49  1  0  0  0  0
M  END
> <NMREDATA_VERSION>
1.1

> <NMREDATA_LEVEL>
0

> <NMREDATA_FORMULA>
C21H26NP

> <NMREDATA_SMILES>
CC(P(c1ccccc1c1cc2c(n1C)cccc2)C(C)C)C

> <NMREDATA_ASSIGNMENT>
P17, -1.29, 17

> <NMREDATA_1D_31P>
-1.29, L=P17

$$$$
