manual_00016.mol
 OpenBabel05202308372D

 83 86  0  0  0  0  0  0  0  0999 V2000
   -0.6058    0.0619    0.0000 P   0  0  0  0  0  0  0  0  0  0  0  0
    1.5767   -0.7219    0.0000 C   0  0  0  0  0  0  0  0  0  0  0  0
    0.7517   -0.7219    0.0000 C   0  0  0  0  0  0  0  0  0  0  0  0
    0.3392   -1.4363    0.0000 C   0  0  0  0  0  0  0  0  0  0  0  0
    0.7517   -2.1508    0.0000 C   0  0  0  0  0  0  0  0  0  0  0  0
    1.5767   -2.1508    0.0000 C   0  0  0  0  0  0  0  0  0  0  0  0
    1.9892   -1.4363    0.0000 C   0  0  0  0  0  0  0  0  0  0  0  0
    1.9892   -0.0074    0.0000 C   0  0  0  0  0  0  0  0  0  0  0  0
    2.8016   -0.1507    0.0000 C   0  0  0  0  0  0  0  0  0  0  0  0
    3.3319    0.4813    0.0000 C   0  0  0  0  0  0  0  0  0  0  0  0
    3.0498    1.2566    0.0000 C   0  0  0  0  0  0  0  0  0  0  0  0
    2.2373    1.3998    0.0000 C   0  0  0  0  0  0  0  0  0  0  0  0
    1.7070    0.7678    0.0000 C   0  0  0  0  0  0  0  0  0  0  0  0
    0.8945    0.9111    0.0000 C   0  0  0  0  0  0  0  0  0  0  0  0
    0.3642    0.2791    0.0000 C   0  0  0  0  0  0  0  0  0  0  0  0
    0.6124    1.6863    0.0000 C   0  0  0  0  0  0  0  0  0  0  0  0
    3.5801    1.8886    0.0000 C   0  0  0  0  0  0  0  0  0  0  0  0
    4.3925    1.7453    0.0000 C   0  0  0  0  0  0  0  0  0  0  0  0
    3.2979    2.6638    0.0000 C   0  0  0  0  0  0  0  0  0  0  0  0
    3.0838   -0.9259    0.0000 C   0  0  0  0  0  0  0  0  0  0  0  0
    3.8963   -1.0692    0.0000 C   0  0  0  0  0  0  0  0  0  0  0  0
    2.5535   -1.5579    0.0000 C   0  0  0  0  0  0  0  0  0  0  0  0
   -0.6058    0.8869    0.0000 C   0  0  0  0  0  0  0  0  0  0  0  0
   -1.3203    1.2994    0.0000 C   0  0  0  0  0  0  0  0  0  0  0  0
   -1.3203    2.1244    0.0000 C   0  0  0  0  0  0  0  0  0  0  0  0
   -0.6058    2.5369    0.0000 C   0  0  0  0  0  0  0  0  0  0  0  0
    0.1086    2.1244    0.0000 C   0  0  0  0  0  0  0  0  0  0  0  0
    0.1086    1.2994    0.0000 C   0  0  0  0  0  0  0  0  0  0  0  0
    0.8231    2.5369    0.0000 C   0  0  0  0  0  0  0  0  0  0  0  0
    1.5376    2.9494    0.0000 F   0  0  0  0  0  0  0  0  0  0  0  0
    0.8231    3.3619    0.0000 F   0  0  0  0  0  0  0  0  0  0  0  0
    1.5376    2.1244    0.0000 F   0  0  0  0  0  0  0  0  0  0  0  0
   -2.0348    2.5369    0.0000 C   0  0  0  0  0  0  0  0  0  0  0  0
   -2.0348    3.3619    0.0000 F   0  0  0  0  0  0  0  0  0  0  0  0
   -2.7492    2.9494    0.0000 F   0  0  0  0  0  0  0  0  0  0  0  0
   -2.7492    2.1244    0.0000 F   0  0  0  0  0  0  0  0  0  0  0  0
   -1.5346   -0.4744    0.0000 C   0  0  0  0  0  0  0  0  0  0  0  0
   -2.2491   -0.0619    0.0000 C   0  0  0  0  0  0  0  0  0  0  0  0
   -2.9636   -0.4744    0.0000 C   0  0  0  0  0  0  0  0  0  0  0  0
   -2.9636   -1.2994    0.0000 C   0  0  0  0  0  0  0  0  0  0  0  0
   -2.2491   -1.7119    0.0000 C   0  0  0  0  0  0  0  0  0  0  0  0
   -1.5346   -1.2994    0.0000 C   0  0  0  0  0  0  0  0  0  0  0  0
   -2.2491   -2.5369    0.0000 C   0  0  0  0  0  0  0  0  0  0  0  0
   -2.2491   -3.3619    0.0000 F   0  0  0  0  0  0  0  0  0  0  0  0
   -1.5346   -2.9494    0.0000 F   0  0  0  0  0  0  0  0  0  0  0  0
   -2.9636   -2.9494    0.0000 F   0  0  0  0  0  0  0  0  0  0  0  0
   -3.6781   -0.0619    0.0000 C   0  0  0  0  0  0  0  0  0  0  0  0
   -3.6781    0.7631    0.0000 F   0  0  0  0  0  0  0  0  0  0  0  0
   -4.3925    0.3506    0.0000 F   0  0  0  0  0  0  0  0  0  0  0  0
   -4.3925   -0.4744    0.0000 F   0  0  0  0  0  0  0  0  0  0  0  0
   -0.6928   -1.4363    0.0000 H   0  0  0  0  0  0  0  0  0  0  0  0
    0.2357   -3.0445    0.0000 H   0  0  0  0  0  0  0  0  0  0  0  0
    2.0927   -3.0445    0.0000 H   0  0  0  0  0  0  0  0  0  0  0  0
    3.0212   -1.4363    0.0000 H   0  0  0  0  0  0  0  0  0  0  0  0
    4.3482    0.3021    0.0000 H   0  0  0  0  0  0  0  0  0  0  0  0
    1.8843    2.3695    0.0000 H   0  0  0  0  0  0  0  0  0  0  0  0
    1.5823    1.7307    0.0000 H   0  0  0  0  0  0  0  0  0  0  0  0
   -0.6895    0.4649    0.0000 H   0  0  0  0  0  0  0  0  0  0  0  0
    0.7302   -0.7264    0.0000 H   0  0  0  0  0  0  0  0  0  0  0  0
   -0.3236   -0.5406    0.0000 H   0  0  0  0  0  0  0  0  0  0  0  0
    1.3002    2.5059    0.0000 H   0  0  0  0  0  0  0  0  0  0  0  0
   -0.4413    1.8722    0.0000 H   0  0  0  0  0  0  0  0  0  0  0  0
    0.2465    2.6918    0.0000 H   0  0  0  0  0  0  0  0  0  0  0  0
    2.5263    2.0744    0.0000 H   0  0  0  0  0  0  0  0  0  0  0  0
    4.7584    0.7398    0.0000 H   0  0  0  0  0  0  0  0  0  0  0  0
    5.0803    2.5649    0.0000 H   0  0  0  0  0  0  0  0  0  0  0  0
    5.4462    1.5594    0.0000 H   0  0  0  0  0  0  0  0  0  0  0  0
    3.9856    3.4835    0.0000 H   0  0  0  0  0  0  0  0  0  0  0  0
    2.2441    2.8495    0.0000 H   0  0  0  0  0  0  0  0  0  0  0  0
    2.9319    3.6693    0.0000 H   0  0  0  0  0  0  0  0  0  0  0  0
    2.0300   -0.7401    0.0000 H   0  0  0  0  0  0  0  0  0  0  0  0
    4.2622   -2.0747    0.0000 H   0  0  0  0  0  0  0  0  0  0  0  0
    4.5841   -0.2496    0.0000 H   0  0  0  0  0  0  0  0  0  0  0  0
    4.9500   -1.2550    0.0000 H   0  0  0  0  0  0  0  0  0  0  0  0
    1.4998   -1.3721    0.0000 H   0  0  0  0  0  0  0  0  0  0  0  0
    2.9195   -2.5634    0.0000 H   0  0  0  0  0  0  0  0  0  0  0  0
    1.8657   -2.3776    0.0000 H   0  0  0  0  0  0  0  0  0  0  0  0
   -2.2140    0.7834    0.0000 H   0  0  0  0  0  0  0  0  0  0  0  0
   -0.6058    3.5689    0.0000 H   0  0  0  0  0  0  0  0  0  0  0  0
    1.0023    0.7834    0.0000 H   0  0  0  0  0  0  0  0  0  0  0  0
   -2.2491    0.9701    0.0000 H   0  0  0  0  0  0  0  0  0  0  0  0
   -3.8573   -1.8154    0.0000 H   0  0  0  0  0  0  0  0  0  0  0  0
   -0.6409   -1.8154    0.0000 H   0  0  0  0  0  0  0  0  0  0  0  0
  1  3  1  0  0  0  0
  1 23  1  0  0  0  0
  1 37  1  0  0  0  0
  2  3  1  0  0  0  0
  2  7  2  0  0  0  0
  2  8  1  0  0  0  0
  3  4  2  0  0  0  0
  4  5  1  0  0  0  0
  4 51  1  0  0  0  0
  5  6  2  0  0  0  0
  5 52  1  0  0  0  0
  6  7  1  0  0  0  0
  6 53  1  0  0  0  0
  7 54  1  0  0  0  0
  8  9  1  0  0  0  0
  8 13  2  0  0  0  0
  9 10  2  0  0  0  0
  9 20  1  0  0  0  0
 10 11  1  0  0  0  0
 10 55  1  0  0  0  0
 11 12  2  0  0  0  0
 11 17  1  0  0  0  0
 12 13  1  0  0  0  0
 12 56  1  0  0  0  0
 13 14  1  0  0  0  0
 14 15  1  0  0  0  0
 14 16  1  0  0  0  0
 14 57  1  0  0  0  0
 15 58  1  0  0  0  0
 15 59  1  0  0  0  0
 15 60  1  0  0  0  0
 16 61  1  0  0  0  0
 16 62  1  0  0  0  0
 16 63  1  0  0  0  0
 17 18  1  0  0  0  0
 17 19  1  0  0  0  0
 17 64  1  0  0  0  0
 18 65  1  0  0  0  0
 18 66  1  0  0  0  0
 18 67  1  0  0  0  0
 19 68  1  0  0  0  0
 19 69  1  0  0  0  0
 19 70  1  0  0  0  0
 20 21  1  0  0  0  0
 20 22  1  0  0  0  0
 20 71  1  0  0  0  0
 21 72  1  0  0  0  0
 21 73  1  0  0  0  0
 21 74  1  0  0  0  0
 22 75  1  0  0  0  0
 22 76  1  0  0  0  0
 22 77  1  0  0  0  0
 23 24  1  0  0  0  0
 23 28  2  0  0  0  0
 24 25  2  0  0  0  0
 24 78  1  0  0  0  0
 25 26  1  0  0  0  0
 25 33  1  0  0  0  0
 26 27  2  0  0  0  0
 26 79  1  0  0  0  0
 27 28  1  0  0  0  0
 27 29  1  0  0  0  0
 28 80  1  0  0  0  0
 29 30  1  0  0  0  0
 29 31  1  0  0  0  0
 29 32  1  0  0  0  0
 33 34  1  0  0  0  0
 33 35  1  0  0  0  0
 33 36  1  0  0  0  0
 37 38  1  0  0  0  0
 37 42  2  0  0  0  0
 38 39  2  0  0  0  0
 38 81  1  0  0  0  0
 39 40  1  0  0  0  0
 39 47  1  0  0  0  0
 40 41  2  0  0  0  0
 40 82  1  0  0  0  0
 41 42  1  0  0  0  0
 41 43  1  0  0  0  0
 42 83  1  0  0  0  0
 43 44  1  0  0  0  0
 43 45  1  0  0  0  0
 43 46  1  0  0  0  0
 47 48  1  0  0  0  0
 47 49  1  0  0  0  0
 47 50  1  0  0  0  0
M  END
> <NMREDATA_VERSION>
1.1

> <NMREDATA_LEVEL>
0

> <NMREDATA_FORMULA>
C37H33F12P

> <NMREDATA_SMILES>
CC(c1cc(cc(c1c1ccccc1P(c1cc(cc(c1)C(F)(F)F)C(F)(F)F)c1cc(cc(c1)C(F)(F)F)C(F)(F)F)C(C)C)C(C)C)C

> <NMREDATA_ASSIGNMENT>
P1, -15.90, 1

> <NMREDATA_1D_31P>
-15.90, L=P1

$$$$
