manual_00034.mol
 OpenBabel06122522452D

 84 87  0  0  0  0  0  0  0  0999 V2000
    0.9750   -0.5427    0.0000 C   0  0  0  0  0  0  0  0  0  0  0  0
    0.9750    0.2794    0.0000 C   0  0  0  0  0  0  0  0  0  0  0  0
    1.6870    0.6905    0.0000 C   0  0  0  0  0  0  0  0  0  0  0  0
    2.3990    0.2794    0.0000 C   0  0  0  0  0  0  0  0  0  0  0  0
    2.3990   -0.5427    0.0000 C   0  0  0  0  0  0  0  0  0  0  0  0
    1.6870   -0.9538    0.0000 C   0  0  0  0  0  0  0  0  0  0  0  0
    0.2630   -0.9538    0.0000 C   0  0  0  0  0  0  0  0  0  0  0  0
   -0.5096   -0.6726    0.0000 C   0  0  0  0  0  0  0  0  0  0  0  0
   -1.1394   -1.2010    0.0000 C   0  0  0  0  0  0  0  0  0  0  0  0
   -0.9966   -2.0107    0.0000 C   0  0  0  0  0  0  0  0  0  0  0  0
   -0.2240   -2.2919    0.0000 C   0  0  0  0  0  0  0  0  0  0  0  0
    0.4057   -1.7634    0.0000 C   0  0  0  0  0  0  0  0  0  0  0  0
    1.1783   -2.0446    0.0000 C   0  0  0  0  0  0  0  0  0  0  0  0
    1.9509   -2.3258    0.0000 C   0  0  0  0  0  0  0  0  0  0  0  0
    1.3211   -2.8543    0.0000 C   0  0  0  0  0  0  0  0  0  0  0  0
    1.8081   -1.5161    0.0000 C   0  0  0  0  0  0  0  0  0  0  0  0
   -1.6264   -2.5391    0.0000 C   0  0  0  0  0  0  0  0  0  0  0  0
   -1.4836   -3.3488    0.0000 C   0  0  0  0  0  0  0  0  0  0  0  0
   -2.2562   -3.0676    0.0000 C   0  0  0  0  0  0  0  0  0  0  0  0
   -2.3990   -2.2580    0.0000 C   0  0  0  0  0  0  0  0  0  0  0  0
   -0.6523    0.1371    0.0000 O   0  0  0  0  0  0  0  0  0  0  0  0
   -0.1800    0.5334    0.0000 C   0  0  0  0  0  0  0  0  0  0  0  0
    0.1562    0.9664    0.0000 P   0  0  0  0  0  0  0  0  0  0  0  0
    0.3690    1.7605    0.0000 C   0  0  0  0  0  0  0  0  0  0  0  0
   -0.2123    2.3419    0.0000 C   0  0  0  0  0  0  0  0  0  0  0  0
    0.0005    3.1360    0.0000 C   0  0  0  0  0  0  0  0  0  0  0  0
    0.7946    3.3488    0.0000 C   0  0  0  0  0  0  0  0  0  0  0  0
    1.3759    2.7675    0.0000 C   0  0  0  0  0  0  0  0  0  0  0  0
    1.1631    1.9733    0.0000 C   0  0  0  0  0  0  0  0  0  0  0  0
   -0.6534    0.8237    0.0000 C   0  0  0  0  0  0  0  0  0  0  0  0
   -1.0645    0.1117    0.0000 C   0  0  0  0  0  0  0  0  0  0  0  0
   -1.8866    0.1117    0.0000 C   0  0  0  0  0  0  0  0  0  0  0  0
   -2.2977    0.8237    0.0000 C   0  0  0  0  0  0  0  0  0  0  0  0
   -1.8866    1.5357    0.0000 C   0  0  0  0  0  0  0  0  0  0  0  0
   -1.0645    1.5357    0.0000 C   0  0  0  0  0  0  0  0  0  0  0  0
    1.6870    1.7225    0.0000 H   0  0  0  0  0  0  0  0  0  0  0  0
    3.2927    0.7954    0.0000 H   0  0  0  0  0  0  0  0  0  0  0  0
    3.2927   -1.0587    0.0000 H   0  0  0  0  0  0  0  0  0  0  0  0
    1.6870   -1.9858    0.0000 H   0  0  0  0  0  0  0  0  0  0  0  0
   -2.1092   -0.8480    0.0000 H   0  0  0  0  0  0  0  0  0  0  0  0
   -0.0447   -3.3082    0.0000 H   0  0  0  0  0  0  0  0  0  0  0  0
    2.1367   -3.3795    0.0000 H   0  0  0  0  0  0  0  0  0  0  0  0
    2.7706   -1.6380    0.0000 H   0  0  0  0  0  0  0  0  0  0  0  0
    2.9564   -2.6918    0.0000 H   0  0  0  0  0  0  0  0  0  0  0  0
    0.5015   -3.5421    0.0000 H   0  0  0  0  0  0  0  0  0  0  0  0
    2.3266   -3.2202    0.0000 H   0  0  0  0  0  0  0  0  0  0  0  0
    1.5069   -3.9080    0.0000 H   0  0  0  0  0  0  0  0  0  0  0  0
    2.8136   -1.8820    0.0000 H   0  0  0  0  0  0  0  0  0  0  0  0
    1.6223   -0.4624    0.0000 H   0  0  0  0  0  0  0  0  0  0  0  0
    2.6277   -0.8283    0.0000 H   0  0  0  0  0  0  0  0  0  0  0  0
   -2.3032   -4.0366    0.0000 H   0  0  0  0  0  0  0  0  0  0  0  0
   -0.4781   -3.7147    0.0000 H   0  0  0  0  0  0  0  0  0  0  0  0
   -1.2978   -4.4025    0.0000 H   0  0  0  0  0  0  0  0  0  0  0  0
   -3.2617   -2.7017    0.0000 H   0  0  0  0  0  0  0  0  0  0  0  0
   -2.0704   -4.1213    0.0000 H   0  0  0  0  0  0  0  0  0  0  0  0
   -3.0758   -3.7554    0.0000 H   0  0  0  0  0  0  0  0  0  0  0  0
   -2.5849   -1.2043    0.0000 H   0  0  0  0  0  0  0  0  0  0  0  0
   -3.2186   -2.9459    0.0000 H   0  0  0  0  0  0  0  0  0  0  0  0
   -3.4045   -1.8922    0.0000 H   0  0  0  0  0  0  0  0  0  0  0  0
    0.8255    0.1674    0.0000 H   0  0  0  0  0  0  0  0  0  0  0  0
   -0.3658    1.5871    0.0000 H   0  0  0  0  0  0  0  0  0  0  0  0
    0.6397    1.2212    0.0000 H   0  0  0  0  0  0  0  0  0  0  0  0
    1.1256    1.0039    0.0000 H   0  0  0  0  0  0  0  0  0  0  0  0
   -1.2459    2.0650    0.0000 H   0  0  0  0  0  0  0  0  0  0  0  0
   -0.9689    3.0985    0.0000 H   0  0  0  0  0  0  0  0  0  0  0  0
   -0.7561    3.8926    0.0000 H   0  0  0  0  0  0  0  0  0  0  0  0
    0.2774    4.1695    0.0000 H   0  0  0  0  0  0  0  0  0  0  0  0
    1.0715    4.3823    0.0000 H   0  0  0  0  0  0  0  0  0  0  0  0
    1.8281    3.6257    0.0000 H   0  0  0  0  0  0  0  0  0  0  0  0
    2.4094    3.0444    0.0000 H   0  0  0  0  0  0  0  0  0  0  0  0
    2.1325    2.0109    0.0000 H   0  0  0  0  0  0  0  0  0  0  0  0
    1.9197    1.2167    0.0000 H   0  0  0  0  0  0  0  0  0  0  0  0
    0.8862    0.9398    0.0000 H   0  0  0  0  0  0  0  0  0  0  0  0
   -0.2012    1.7934    0.0000 H   0  0  0  0  0  0  0  0  0  0  0  0
   -0.5295   -0.8150    0.0000 H   0  0  0  0  0  0  0  0  0  0  0  0
   -1.5995   -0.8149    0.0000 H   0  0  0  0  0  0  0  0  0  0  0  0
   -2.4216   -0.8150    0.0000 H   0  0  0  0  0  0  0  0  0  0  0  0
   -2.9566    0.1117    0.0000 H   0  0  0  0  0  0  0  0  0  0  0  0
   -3.3677    0.8237    0.0000 H   0  0  0  0  0  0  0  0  0  0  0  0
   -2.8327    1.7504    0.0000 H   0  0  0  0  0  0  0  0  0  0  0  0
   -2.4216    2.4624    0.0000 H   0  0  0  0  0  0  0  0  0  0  0  0
   -1.3516    2.4623    0.0000 H   0  0  0  0  0  0  0  0  0  0  0  0
   -0.5295    2.4624    0.0000 H   0  0  0  0  0  0  0  0  0  0  0  0
    0.0055    1.5357    0.0000 H   0  0  0  0  0  0  0  0  0  0  0  0
  1  2  1  0  0  0  0
  1  6  2  0  0  0  0
  1  7  1  0  0  0  0
  2  3  2  0  0  0  0
  2 23  1  0  0  0  0
  3  4  1  0  0  0  0
  3 36  1  0  0  0  0
  4  5  2  0  0  0  0
  4 37  1  0  0  0  0
  5  6  1  0  0  0  0
  5 38  1  0  0  0  0
  6 39  1  0  0  0  0
  7  8  1  0  0  0  0
  7 12  2  0  0  0  0
  8  9  2  0  0  0  0
  8 21  1  0  0  0  0
  9 10  1  0  0  0  0
  9 40  1  0  0  0  0
 10 11  2  0  0  0  0
 10 17  1  0  0  0  0
 11 12  1  0  0  0  0
 11 41  1  0  0  0  0
 12 13  1  0  0  0  0
 13 14  1  0  0  0  0
 13 16  1  0  0  0  0
 13 15  1  0  0  0  0
 14 42  1  0  0  0  0
 14 43  1  0  0  0  0
 14 44  1  0  0  0  0
 15 45  1  0  0  0  0
 15 46  1  0  0  0  0
 15 47  1  0  0  0  0
 16 48  1  0  0  0  0
 16 49  1  0  0  0  0
 16 50  1  0  0  0  0
 17 18  1  0  0  0  0
 17 20  1  0  0  0  0
 17 19  1  0  0  0  0
 18 51  1  0  0  0  0
 18 52  1  0  0  0  0
 18 53  1  0  0  0  0
 19 54  1  0  0  0  0
 19 55  1  0  0  0  0
 19 56  1  0  0  0  0
 20 57  1  0  0  0  0
 20 58  1  0  0  0  0
 20 59  1  0  0  0  0
 21 22  1  0  0  0  0
 22 60  1  0  0  0  0
 22 61  1  0  0  0  0
 22 62  1  0  0  0  0
 23 24  1  0  0  0  0
 23 30  1  0  0  0  0
 24 25  1  0  0  0  0
 24 29  1  0  0  0  0
 24 63  1  0  0  0  0
 25 26  1  0  0  0  0
 25 64  1  0  0  0  0
 25 65  1  0  0  0  0
 26 27  1  0  0  0  0
 26 66  1  0  0  0  0
 26 67  1  0  0  0  0
 27 28  1  0  0  0  0
 27 68  1  0  0  0  0
 27 69  1  0  0  0  0
 28 29  1  0  0  0  0
 28 70  1  0  0  0  0
 28 71  1  0  0  0  0
 29 72  1  0  0  0  0
 29 73  1  0  0  0  0
 30 31  1  0  0  0  0
 30 35  1  0  0  0  0
 30 74  1  0  0  0  0
 31 32  1  0  0  0  0
 31 75  1  0  0  0  0
 31 76  1  0  0  0  0
 32 33  1  0  0  0  0
 32 77  1  0  0  0  0
 32 78  1  0  0  0  0
 33 34  1  0  0  0  0
 33 79  1  0  0  0  0
 33 80  1  0  0  0  0
 34 35  1  0  0  0  0
 34 81  1  0  0  0  0
 34 82  1  0  0  0  0
 35 83  1  0  0  0  0
 35 84  1  0  0  0  0
M  END
> <NMREDATA_VERSION>
1.1

> <NMREDATA_LEVEL>
0

> <NMREDATA_FORMULA>
C33H49OP

> <NMREDATA_SMILES>
COc1cc(cc(c1c1ccccc1P(C1CCCCC1)C1CCCCC1)C(C)(C)C)C(C)(C)C

> <NMREDATA_ASSIGNMENT>
P23, -8.50, 23

> <NMREDATA_1D_31P>
-8.50, L=P23

$$$$
