manual_00063.mol
 OpenBabel06122522452D

 71 74  0  0  0  0  0  0  0  0999 V2000
   -1.4289    2.2687    0.0000 C   0  0  0  0  0  0  0  0  0  0  0  0
   -1.4289    1.4437    0.0000 C   0  0  0  0  0  0  0  0  0  0  0  0
   -0.7145    1.0312    0.0000 C   0  0  0  0  0  0  0  0  0  0  0  0
    0.0000    1.4437    0.0000 C   0  0  0  0  0  0  0  0  0  0  0  0
    0.0000    2.2687    0.0000 C   0  0  0  0  0  0  0  0  0  0  0  0
   -0.7145    2.6812    0.0000 C   0  0  0  0  0  0  0  0  0  0  0  0
   -0.7145    0.2062    0.0000 C   0  0  0  0  0  0  0  0  0  0  0  0
   -1.4289   -0.2062    0.0000 C   0  0  0  0  0  0  0  0  0  0  0  0
   -1.4289   -1.0312    0.0000 C   0  0  0  0  0  0  0  0  0  0  0  0
   -0.7145   -1.4437    0.0000 C   0  0  0  0  0  0  0  0  0  0  0  0
    0.0000   -1.0312    0.0000 C   0  0  0  0  0  0  0  0  0  0  0  0
    0.0000   -0.2062    0.0000 C   0  0  0  0  0  0  0  0  0  0  0  0
    0.7145    1.0312    0.0000 P   0  0  0  0  0  0  0  0  0  0  0  0
    1.4289    1.4437    0.0000 C   0  0  0  0  0  0  0  0  0  0  0  0
    0.7145    0.2062    0.0000 C   0  0  0  0  0  0  0  0  0  0  0  0
   -0.7145   -2.2687    0.0000 C   0  0  0  0  0  0  0  0  0  0  0  0
    0.0000   -2.6812    0.0000 C   0  0  0  0  0  0  0  0  0  0  0  0
   -1.4289   -2.6812    0.0000 C   0  0  0  0  0  0  0  0  0  0  0  0
   -2.1434    0.2062    0.0000 C   0  0  0  0  0  0  0  0  0  0  0  0
   -2.8579   -0.2062    0.0000 C   0  0  0  0  0  0  0  0  0  0  0  0
   -2.1434    1.0312    0.0000 C   0  0  0  0  0  0  0  0  0  0  0  0
    0.7145   -0.6187    0.0000 C   0  0  0  0  0  0  0  0  0  0  0  0
    0.7145   -1.4437    0.0000 C   0  0  0  0  0  0  0  0  0  0  0  0
    1.5395   -0.6187    0.0000 C   0  0  0  0  0  0  0  0  0  0  0  0
    1.1270   -0.5082    0.0000 C   0  0  0  0  0  0  0  0  0  0  0  0
    1.9520   -0.5082    0.0000 C   0  0  0  0  0  0  0  0  0  0  0  0
    2.3645    0.2062    0.0000 C   0  0  0  0  0  0  0  0  0  0  0  0
    1.9520    0.9207    0.0000 C   0  0  0  0  0  0  0  0  0  0  0  0
    1.1270    0.9207    0.0000 C   0  0  0  0  0  0  0  0  0  0  0  0
    2.1434    1.0312    0.0000 C   0  0  0  0  0  0  0  0  0  0  0  0
    2.8579    1.4437    0.0000 C   0  0  0  0  0  0  0  0  0  0  0  0
    2.8579    2.2687    0.0000 C   0  0  0  0  0  0  0  0  0  0  0  0
    2.1434    2.6812    0.0000 C   0  0  0  0  0  0  0  0  0  0  0  0
    1.4289    2.2687    0.0000 C   0  0  0  0  0  0  0  0  0  0  0  0
   -2.3226    2.7847    0.0000 H   0  0  0  0  0  0  0  0  0  0  0  0
   -2.3226    0.9277    0.0000 H   0  0  0  0  0  0  0  0  0  0  0  0
    0.8937    2.7847    0.0000 H   0  0  0  0  0  0  0  0  0  0  0  0
   -0.7145    3.7132    0.0000 H   0  0  0  0  0  0  0  0  0  0  0  0
   -2.3226   -1.5472    0.0000 H   0  0  0  0  0  0  0  0  0  0  0  0
    0.8937   -1.5472    0.0000 H   0  0  0  0  0  0  0  0  0  0  0  0
   -0.7145   -3.3387    0.0000 H   0  0  0  0  0  0  0  0  0  0  0  0
    0.0000   -3.7512    0.0000 H   0  0  0  0  0  0  0  0  0  0  0  0
    0.9266   -2.1462    0.0000 H   0  0  0  0  0  0  0  0  0  0  0  0
    0.9267   -3.2162    0.0000 H   0  0  0  0  0  0  0  0  0  0  0  0
   -2.3556   -2.1462    0.0000 H   0  0  0  0  0  0  0  0  0  0  0  0
   -1.4289   -3.7512    0.0000 H   0  0  0  0  0  0  0  0  0  0  0  0
   -2.3555   -3.2162    0.0000 H   0  0  0  0  0  0  0  0  0  0  0  0
   -3.0700    0.7413    0.0000 H   0  0  0  0  0  0  0  0  0  0  0  0
   -3.7845    0.3289    0.0000 H   0  0  0  0  0  0  0  0  0  0  0  0
   -2.8580   -1.2762    0.0000 H   0  0  0  0  0  0  0  0  0  0  0  0
   -3.7846   -0.7411    0.0000 H   0  0  0  0  0  0  0  0  0  0  0  0
   -1.2168    1.5662    0.0000 H   0  0  0  0  0  0  0  0  0  0  0  0
   -3.0700    1.5662    0.0000 H   0  0  0  0  0  0  0  0  0  0  0  0
   -2.1434    2.1012    0.0000 H   0  0  0  0  0  0  0  0  0  0  0  0
    1.4711   -1.3753    0.0000 H   0  0  0  0  0  0  0  0  0  0  0  0
   -0.2121   -1.9787    0.0000 H   0  0  0  0  0  0  0  0  0  0  0  0
    1.6411   -1.9787    0.0000 H   0  0  0  0  0  0  0  0  0  0  0  0
    0.7145   -2.5137    0.0000 H   0  0  0  0  0  0  0  0  0  0  0  0
    2.0745   -1.5453    0.0000 H   0  0  0  0  0  0  0  0  0  0  0  0
    2.0745    0.3079    0.0000 H   0  0  0  0  0  0  0  0  0  0  0  0
    2.6095   -0.6187    0.0000 H   0  0  0  0  0  0  0  0  0  0  0  0
    0.6110   -1.4019    0.0000 H   0  0  0  0  0  0  0  0  0  0  0  0
    2.4680   -1.4019    0.0000 H   0  0  0  0  0  0  0  0  0  0  0  0
    3.3965    0.2062    0.0000 H   0  0  0  0  0  0  0  0  0  0  0  0
    2.4680    1.8144    0.0000 H   0  0  0  0  0  0  0  0  0  0  0  0
    0.6110    1.8144    0.0000 H   0  0  0  0  0  0  0  0  0  0  0  0
    2.1434   -0.0008    0.0000 H   0  0  0  0  0  0  0  0  0  0  0  0
    3.7516    0.9277    0.0000 H   0  0  0  0  0  0  0  0  0  0  0  0
    3.7516    2.7847    0.0000 H   0  0  0  0  0  0  0  0  0  0  0  0
    2.1434    3.7132    0.0000 H   0  0  0  0  0  0  0  0  0  0  0  0
    0.5352    2.7847    0.0000 H   0  0  0  0  0  0  0  0  0  0  0  0
  1  2  2  0  0  0  0
  1 35  1  0  0  0  0
  2  3  1  0  0  0  0
  2 36  1  0  0  0  0
  3  4  2  0  0  0  0
  3  7  1  0  0  0  0
  4  5  1  0  0  0  0
  4 13  1  0  0  0  0
  5  6  2  0  0  0  0
  5 37  1  0  0  0  0
  6  1  1  0  0  0  0
  6 38  1  0  0  0  0
  7  8  2  0  0  0  0
  8  9  1  0  0  0  0
  8 19  1  0  0  0  0
  9 10  2  0  0  0  0
  9 39  1  0  0  0  0
 10 11  1  0  0  0  0
 10 16  1  0  0  0  0
 11 12  2  0  0  0  0
 11 40  1  0  0  0  0
 12  7  1  0  0  0  0
 12 22  1  0  0  0  0
 13 14  1  0  0  0  0
 13 15  1  0  0  0  0
 14 30  2  0  0  0  0
 15 25  2  0  0  0  0
 16 17  1  0  0  0  0
 16 18  1  0  0  0  0
 16 41  1  0  0  0  0
 17 42  1  0  0  0  0
 17 43  1  0  0  0  0
 17 44  1  0  0  0  0
 18 45  1  0  0  0  0
 18 46  1  0  0  0  0
 18 47  1  0  0  0  0
 19 20  1  0  0  0  0
 19 21  1  0  0  0  0
 19 48  1  0  0  0  0
 20 49  1  0  0  0  0
 20 50  1  0  0  0  0
 20 51  1  0  0  0  0
 21 52  1  0  0  0  0
 21 53  1  0  0  0  0
 21 54  1  0  0  0  0
 22 23  1  0  0  0  0
 22 24  1  0  0  0  0
 22 55  1  0  0  0  0
 23 56  1  0  0  0  0
 23 57  1  0  0  0  0
 23 58  1  0  0  0  0
 24 59  1  0  0  0  0
 24 60  1  0  0  0  0
 24 61  1  0  0  0  0
 25 26  1  0  0  0  0
 25 62  1  0  0  0  0
 26 27  2  0  0  0  0
 26 63  1  0  0  0  0
 27 28  1  0  0  0  0
 27 64  1  0  0  0  0
 28 29  2  0  0  0  0
 28 65  1  0  0  0  0
 29 15  1  0  0  0  0
 29 66  1  0  0  0  0
 30 31  1  0  0  0  0
 30 67  1  0  0  0  0
 31 32  2  0  0  0  0
 31 68  1  0  0  0  0
 32 33  1  0  0  0  0
 32 69  1  0  0  0  0
 33 34  2  0  0  0  0
 33 70  1  0  0  0  0
 34 14  1  0  0  0  0
 34 71  1  0  0  0  0
M  END
> <NMREDATA_VERSION>
1.1

> <NMREDATA_LEVEL>
0

> <NMREDATA_FORMULA>
C33H37P

> <NMREDATA_SMILES>
CC(c1cc(cc(c1c1ccccc1P(c1ccccc1)c1ccccc1)C(C)C)C(C)C)C

> <NMREDATA_ASSIGNMENT>
P13, -17.50, 13

> <NMREDATA_1D_31P>
-17.50, L=P13

$$$$
