manual_00043.mol
 OpenBabel06122522452D

 87 90  0  0  0  0  0  0  0  0999 V2000
    1.2961    1.4033    0.0000 P   0  0  0  0  0  0  0  0  0  0  0  0
    2.1177   -0.1111    0.0000 C   0  0  0  0  0  0  0  0  0  0  0  0
    2.1177    0.7139    0.0000 C   0  0  0  0  0  0  0  0  0  0  0  0
    2.8322    1.1264    0.0000 C   0  0  0  0  0  0  0  0  0  0  0  0
    3.5466    0.7139    0.0000 C   0  0  0  0  0  0  0  0  0  0  0  0
    3.5466   -0.1111    0.0000 C   0  0  0  0  0  0  0  0  0  0  0  0
    2.8322   -0.5236    0.0000 C   0  0  0  0  0  0  0  0  0  0  0  0
   -0.6887   -1.7314    0.0000 C   0  0  0  0  0  0  0  0  0  0  0  0
   -0.6887   -2.5564    0.0000 C   0  0  0  0  0  0  0  0  0  0  0  0
   -1.4032   -2.9689    0.0000 C   0  0  0  0  0  0  0  0  0  0  0  0
   -2.1177   -2.5564    0.0000 C   0  0  0  0  0  0  0  0  0  0  0  0
   -2.1177   -1.7314    0.0000 C   0  0  0  0  0  0  0  0  0  0  0  0
   -1.4032   -1.3189    0.0000 C   0  0  0  0  0  0  0  0  0  0  0  0
    2.8322    1.9514    0.0000 O   0  0  0  0  0  0  0  0  0  0  0  0
    3.5466    2.3639    0.0000 C   0  0  0  0  0  0  0  0  0  0  0  0
   -1.4032   -0.4939    0.0000 C   0  0  0  0  0  0  0  0  0  0  0  0
   -0.6887   -0.0814    0.0000 C   0  0  0  0  0  0  0  0  0  0  0  0
   -2.1177   -0.0814    0.0000 C   0  0  0  0  0  0  0  0  0  0  0  0
   -2.8322   -2.9689    0.0000 C   0  0  0  0  0  0  0  0  0  0  0  0
   -2.8322   -3.7939    0.0000 C   0  0  0  0  0  0  0  0  0  0  0  0
   -3.5466   -2.5564    0.0000 C   0  0  0  0  0  0  0  0  0  0  0  0
    0.0257   -2.9689    0.0000 C   0  0  0  0  0  0  0  0  0  0  0  0
    0.0257   -3.7939    0.0000 C   0  0  0  0  0  0  0  0  0  0  0  0
    0.7402   -2.5564    0.0000 C   0  0  0  0  0  0  0  0  0  0  0  0
    1.5096    2.2002    0.0000 C   0  0  0  0  0  0  0  0  0  0  0  0
    0.9263    2.7835    0.0000 C   0  0  0  0  0  0  0  0  0  0  0  0
    1.1398    3.5804    0.0000 C   0  0  0  0  0  0  0  0  0  0  0  0
    1.9367    3.7939    0.0000 C   0  0  0  0  0  0  0  0  0  0  0  0
    2.5200    3.2106    0.0000 C   0  0  0  0  0  0  0  0  0  0  0  0
    2.3065    2.4137    0.0000 C   0  0  0  0  0  0  0  0  0  0  0  0
    0.4836    1.2600    0.0000 C   0  0  0  0  0  0  0  0  0  0  0  0
    0.2015    0.4848    0.0000 C   0  0  0  0  0  0  0  0  0  0  0  0
   -0.6110    0.3415    0.0000 C   0  0  0  0  0  0  0  0  0  0  0  0
   -1.1413    0.9735    0.0000 C   0  0  0  0  0  0  0  0  0  0  0  0
   -0.8591    1.7487    0.0000 C   0  0  0  0  0  0  0  0  0  0  0  0
   -0.0467    1.8920    0.0000 C   0  0  0  0  0  0  0  0  0  0  0  0
    4.4403    1.2299    0.0000 H   0  0  0  0  0  0  0  0  0  0  0  0
    4.4403   -0.6271    0.0000 H   0  0  0  0  0  0  0  0  0  0  0  0
    2.8322   -1.5556    0.0000 H   0  0  0  0  0  0  0  0  0  0  0  0
   -1.4032   -4.0009    0.0000 H   0  0  0  0  0  0  0  0  0  0  0  0
   -3.0114   -1.2154    0.0000 H   0  0  0  0  0  0  0  0  0  0  0  0
    4.4733    1.8289    0.0000 H   0  0  0  0  0  0  0  0  0  0  0  0
    3.5466    3.4339    0.0000 H   0  0  0  0  0  0  0  0  0  0  0  0
    4.4732    2.8989    0.0000 H   0  0  0  0  0  0  0  0  0  0  0  0
   -2.3298   -1.0289    0.0000 H   0  0  0  0  0  0  0  0  0  0  0  0
    0.2379   -0.6164    0.0000 H   0  0  0  0  0  0  0  0  0  0  0  0
   -0.6887    0.9886    0.0000 H   0  0  0  0  0  0  0  0  0  0  0  0
    0.2380    0.4536    0.0000 H   0  0  0  0  0  0  0  0  0  0  0  0
   -2.1177    0.9886    0.0000 H   0  0  0  0  0  0  0  0  0  0  0  0
   -3.0443   -0.6164    0.0000 H   0  0  0  0  0  0  0  0  0  0  0  0
   -3.0444    0.4536    0.0000 H   0  0  0  0  0  0  0  0  0  0  0  0
   -2.8322   -1.8989    0.0000 H   0  0  0  0  0  0  0  0  0  0  0  0
   -3.7588   -4.3289    0.0000 H   0  0  0  0  0  0  0  0  0  0  0  0
   -1.9056   -4.3289    0.0000 H   0  0  0  0  0  0  0  0  0  0  0  0
   -2.8322   -4.8639    0.0000 H   0  0  0  0  0  0  0  0  0  0  0  0
   -3.5466   -1.4864    0.0000 H   0  0  0  0  0  0  0  0  0  0  0  0
   -4.4733   -3.0914    0.0000 H   0  0  0  0  0  0  0  0  0  0  0  0
   -4.4732   -2.0214    0.0000 H   0  0  0  0  0  0  0  0  0  0  0  0
    0.0257   -1.8989    0.0000 H   0  0  0  0  0  0  0  0  0  0  0  0
   -0.9009   -4.3289    0.0000 H   0  0  0  0  0  0  0  0  0  0  0  0
    0.9523   -4.3289    0.0000 H   0  0  0  0  0  0  0  0  0  0  0  0
    0.0257   -4.8639    0.0000 H   0  0  0  0  0  0  0  0  0  0  0  0
    1.6668   -3.0914    0.0000 H   0  0  0  0  0  0  0  0  0  0  0  0
    0.7402   -1.4864    0.0000 H   0  0  0  0  0  0  0  0  0  0  0  0
    1.6669   -2.0214    0.0000 H   0  0  0  0  0  0  0  0  0  0  0  0
    2.2662    1.4436    0.0000 H   0  0  0  0  0  0  0  0  0  0  0  0
   -0.1072    2.5065    0.0000 H   0  0  0  0  0  0  0  0  0  0  0  0
    0.1697    3.5401    0.0000 H   0  0  0  0  0  0  0  0  0  0  0  0
    0.3832    4.3370    0.0000 H   0  0  0  0  0  0  0  0  0  0  0  0
    1.4168    4.6139    0.0000 H   0  0  0  0  0  0  0  0  0  0  0  0
    2.2137    4.8274    0.0000 H   0  0  0  0  0  0  0  0  0  0  0  0
    2.9702    4.0708    0.0000 H   0  0  0  0  0  0  0  0  0  0  0  0
    3.5535    3.4876    0.0000 H   0  0  0  0  0  0  0  0  0  0  0  0
    3.2766    2.4540    0.0000 H   0  0  0  0  0  0  0  0  0  0  0  0
    3.0631    1.6571    0.0000 H   0  0  0  0  0  0  0  0  0  0  0  0
    2.0295    1.3802    0.0000 H   0  0  0  0  0  0  0  0  0  0  0  0
    0.8495    2.2655    0.0000 H   0  0  0  0  0  0  0  0  0  0  0  0
    0.8893   -0.3348    0.0000 H   0  0  0  0  0  0  0  0  0  0  0  0
   -0.1644   -0.5207    0.0000 H   0  0  0  0  0  0  0  0  0  0  0  0
   -0.9769   -0.6640    0.0000 H   0  0  0  0  0  0  0  0  0  0  0  0
   -1.6647    0.1557    0.0000 H   0  0  0  0  0  0  0  0  0  0  0  0
   -2.1951    0.7877    0.0000 H   0  0  0  0  0  0  0  0  0  0  0  0
   -1.8290    1.7932    0.0000 H   0  0  0  0  0  0  0  0  0  0  0  0
   -1.5469    2.5684    0.0000 H   0  0  0  0  0  0  0  0  0  0  0  0
   -0.4932    2.7542    0.0000 H   0  0  0  0  0  0  0  0  0  0  0  0
    0.3192    2.8975    0.0000 H   0  0  0  0  0  0  0  0  0  0  0  0
    1.0070    2.0778    0.0000 H   0  0  0  0  0  0  0  0  0  0  0  0
  1  3  1  0  0  0  0
  1 25  1  0  0  0  0
  1 31  1  0  0  0  0
  2  3  1  0  0  0  0
  2  7  2  0  0  0  0
  2  8  1  0  0  0  0
  3  4  2  0  0  0  0
  4  5  1  0  0  0  0
  4 14  1  0  0  0  0
  5  6  2  0  0  0  0
  5 37  1  0  0  0  0
  6  7  1  0  0  0  0
  6 38  1  0  0  0  0
  7 39  1  0  0  0  0
  8  9  1  0  0  0  0
  8 13  2  0  0  0  0
  9 10  2  0  0  0  0
  9 22  1  0  0  0  0
 10 11  1  0  0  0  0
 10 40  1  0  0  0  0
 11 12  2  0  0  0  0
 11 19  1  0  0  0  0
 12 13  1  0  0  0  0
 12 41  1  0  0  0  0
 13 16  1  0  0  0  0
 14 15  1  0  0  0  0
 15 42  1  0  0  0  0
 15 43  1  0  0  0  0
 15 44  1  0  0  0  0
 16 17  1  0  0  0  0
 16 18  1  0  0  0  0
 16 45  1  0  0  0  0
 17 46  1  0  0  0  0
 17 47  1  0  0  0  0
 17 48  1  0  0  0  0
 18 49  1  0  0  0  0
 18 50  1  0  0  0  0
 18 51  1  0  0  0  0
 19 20  1  0  0  0  0
 19 21  1  0  0  0  0
 19 52  1  0  0  0  0
 20 53  1  0  0  0  0
 20 54  1  0  0  0  0
 20 55  1  0  0  0  0
 21 56  1  0  0  0  0
 21 57  1  0  0  0  0
 21 58  1  0  0  0  0
 22 23  1  0  0  0  0
 22 24  1  0  0  0  0
 22 59  1  0  0  0  0
 23 60  1  0  0  0  0
 23 61  1  0  0  0  0
 23 62  1  0  0  0  0
 24 63  1  0  0  0  0
 24 64  1  0  0  0  0
 24 65  1  0  0  0  0
 25 26  1  0  0  0  0
 25 30  1  0  0  0  0
 25 66  1  0  0  0  0
 26 27  1  0  0  0  0
 26 67  1  0  0  0  0
 26 68  1  0  0  0  0
 27 28  1  0  0  0  0
 27 69  1  0  0  0  0
 27 70  1  0  0  0  0
 28 29  1  0  0  0  0
 28 71  1  0  0  0  0
 28 72  1  0  0  0  0
 29 30  1  0  0  0  0
 29 73  1  0  0  0  0
 29 74  1  0  0  0  0
 30 75  1  0  0  0  0
 30 76  1  0  0  0  0
 31 32  1  0  0  0  0
 31 36  1  0  0  0  0
 31 77  1  0  0  0  0
 32 33  1  0  0  0  0
 32 78  1  0  0  0  0
 32 79  1  0  0  0  0
 33 34  1  0  0  0  0
 33 80  1  0  0  0  0
 33 81  1  0  0  0  0
 34 35  1  0  0  0  0
 34 82  1  0  0  0  0
 34 83  1  0  0  0  0
 35 36  1  0  0  0  0
 35 84  1  0  0  0  0
 35 85  1  0  0  0  0
 36 86  1  0  0  0  0
 36 87  1  0  0  0  0
M  END
> <NMREDATA_VERSION>
1.1

> <NMREDATA_LEVEL>
0

> <NMREDATA_FORMULA>
C34H51OP

> <NMREDATA_SMILES>
COc1cccc(c1P(C1CCCCC1)C1CCCCC1)c1c(cc(cc1C(C)C)C(C)C)C(C)C

> <NMREDATA_ASSIGNMENT>
P1, -3.00, 1

> <NMREDATA_1D_31P>
-3.00, L=P1

$$$$
