manual_00022.mol
 OpenBabel05202308372D

 76 83  0  0  0  0  0  0  0  0999 V2000
   -0.5624   -0.8950    0.0000 P   0  0  3  0  0  0  0  0  0  0  0  0
    0.7531   -0.8950    0.0000 C   0  0  0  0  0  0  0  0  0  0  0  0
    1.1641   -0.1830    0.0000 C   0  0  0  0  0  0  0  0  0  0  0  0
    1.9863   -0.1830    0.0000 C   0  0  0  0  0  0  0  0  0  0  0  0
    2.3973   -0.8950    0.0000 C   0  0  0  0  0  0  0  0  0  0  0  0
    1.9863   -1.6070    0.0000 C   0  0  0  0  0  0  0  0  0  0  0  0
    1.1641   -1.6070    0.0000 C   0  0  0  0  0  0  0  0  0  0  0  0
   -0.0510    1.9216    0.0000 N   0  0  0  0  0  0  0  0  0  0  0  0
   -0.9734   -0.1830    0.0000 C   0  0  3  0  0  0  0  0  0  0  0  0
   -0.2792    0.2178    0.0000 C   0  0  0  0  0  0  0  0  0  0  0  0
   -0.2693    1.0193    0.0000 C   0  0  3  0  0  0  0  0  0  0  0  0
   -0.9533    1.4372    0.0000 C   0  0  0  0  0  0  0  0  0  0  0  0
   -1.6623    1.0633    0.0000 C   0  0  3  0  0  0  0  0  0  0  0  0
   -2.3818    0.6655    0.0000 C   0  0  0  0  0  0  0  0  0  0  0  0
   -2.3972   -0.1564    0.0000 C   0  0  3  0  0  0  0  0  0  0  0  0
   -1.6930   -0.5807    0.0000 C   0  0  0  0  0  0  0  0  0  0  0  0
   -1.5247    0.7771    0.0000 C   0  0  0  0  0  0  0  0  0  0  0  0
   -0.9581    0.6390    0.0000 C   0  0  0  0  0  0  0  0  0  0  0  0
   -0.9734   -1.6070    0.0000 C   0  0  3  0  0  0  0  0  0  0  0  0
   -0.2830   -2.0142    0.0000 C   0  0  0  0  0  0  0  0  0  0  0  0
   -0.2805   -2.8158    0.0000 C   0  0  3  0  0  0  0  0  0  0  0  0
   -0.9684   -3.2273    0.0000 C   0  0  0  0  0  0  0  0  0  0  0  0
   -1.6739   -2.8468    0.0000 C   0  0  3  0  0  0  0  0  0  0  0  0
   -2.3897   -2.4424    0.0000 C   0  0  0  0  0  0  0  0  0  0  0  0
   -2.3973   -1.6203    0.0000 C   0  0  3  0  0  0  0  0  0  0  0  0
   -1.6892   -1.2026    0.0000 C   0  0  0  0  0  0  0  0  0  0  0  0
   -1.5336   -2.5619    0.0000 C   0  0  0  0  0  0  0  0  0  0  0  0
   -0.9658   -2.4291    0.0000 C   0  0  0  0  0  0  0  0  0  0  0  0
    0.2846    2.6753    0.0000 C   0  0  0  0  0  0  0  0  0  0  0  0
   -0.3285    3.2273    0.0000 C   0  0  0  0  0  0  0  0  0  0  0  0
   -1.0430    2.8148    0.0000 C   0  0  0  0  0  0  0  0  0  0  0  0
   -0.8715    2.0079    0.0000 C   0  0  0  0  0  0  0  0  0  0  0  0
    1.0915    2.8468    0.0000 C   0  0  0  0  0  0  0  0  0  0  0  0
   -1.4235    1.3948    0.0000 C   0  0  0  0  0  0  0  0  0  0  0  0
    2.5023    0.7107    0.0000 H   0  0  0  0  0  0  0  0  0  0  0  0
    3.4293   -0.8950    0.0000 H   0  0  0  0  0  0  0  0  0  0  0  0
    2.5023   -2.5007    0.0000 H   0  0  0  0  0  0  0  0  0  0  0  0
    0.6481   -2.5007    0.0000 H   0  0  0  0  0  0  0  0  0  0  0  0
    0.6441   -0.3229    0.0000 H   0  0  0  0  0  0  0  0  0  0  0  0
    0.6524    0.7442    0.0000 H   0  0  0  0  0  0  0  0  0  0  0  0
   -1.2057    0.5016    0.0000 H   0  0  0  0  0  0  0  0  0  0  0  0
   -0.9195    2.5067    0.0000 H   0  0  0  0  0  0  0  0  0  0  0  0
   -1.8607    2.0042    0.0000 H   0  0  0  0  0  0  0  0  0  0  0  0
   -1.1539    0.1218    0.0000 H   0  0  0  0  0  0  0  0  0  0  0  0
   -3.2983    1.2177    0.0000 H   0  0  0  0  0  0  0  0  0  0  0  0
   -3.3183    0.1479    0.0000 H   0  0  0  0  0  0  0  0  0  0  0  0
   -1.4607    0.3612    0.0000 H   0  0  0  0  0  0  0  0  0  0  0  0
   -1.7130   -1.6505    0.0000 H   0  0  0  0  0  0  0  0  0  0  0  0
   -0.7765   -1.1329    0.0000 H   0  0  0  0  0  0  0  0  0  0  0  0
   -2.0423    1.7136    0.0000 H   0  0  0  0  0  0  0  0  0  0  0  0
   -1.0712    1.7462    0.0000 H   0  0  0  0  0  0  0  0  0  0  0  0
   -0.0216    1.1566    0.0000 H   0  0  0  0  0  0  0  0  0  0  0  0
   -0.0416    0.0868    0.0000 H   0  0  0  0  0  0  0  0  0  0  0  0
    0.6453   -1.4821    0.0000 H   0  0  0  0  0  0  0  0  0  0  0  0
    0.6437   -2.5492    0.0000 H   0  0  0  0  0  0  0  0  0  0  0  0
   -1.2121   -2.2894    0.0000 H   0  0  0  0  0  0  0  0  0  0  0  0
   -0.9446   -4.2970    0.0000 H   0  0  0  0  0  0  0  0  0  0  0  0
   -1.8810   -3.7859    0.0000 H   0  0  0  0  0  0  0  0  0  0  0  0
   -1.1568   -1.9101    0.0000 H   0  0  0  0  0  0  0  0  0  0  0  0
   -3.3113   -2.9860    0.0000 H   0  0  0  0  0  0  0  0  0  0  0  0
   -3.3213   -1.9160    0.0000 H   0  0  0  0  0  0  0  0  0  0  0  0
   -1.4657   -2.1467    0.0000 H   0  0  0  0  0  0  0  0  0  0  0  0
   -1.6992   -0.1326    0.0000 H   0  0  0  0  0  0  0  0  0  0  0  0
   -0.7676   -0.6590    0.0000 H   0  0  0  0  0  0  0  0  0  0  0  0
   -2.0599   -3.4935    0.0000 H   0  0  0  0  0  0  0  0  0  0  0  0
   -1.0892   -3.5352    0.0000 H   0  0  0  0  0  0  0  0  0  0  0  0
   -0.0342   -2.9555    0.0000 H   0  0  0  0  0  0  0  0  0  0  0  0
   -0.0442   -1.8855    0.0000 H   0  0  0  0  0  0  0  0  0  0  0  0
   -0.2206    4.2536    0.0000 H   0  0  0  0  0  0  0  0  0  0  0  0
   -1.9858    3.2346    0.0000 H   0  0  0  0  0  0  0  0  0  0  0  0
    1.8075    2.0516    0.0000 H   0  0  0  0  0  0  0  0  0  0  0  0
    1.4222    3.8644    0.0000 H   0  0  0  0  0  0  0  0  0  0  0  0
    2.1381    3.0693    0.0000 H   0  0  0  0  0  0  0  0  0  0  0  0
   -2.4701    1.6172    0.0000 H   0  0  0  0  0  0  0  0  0  0  0  0
   -1.0928    0.3772    0.0000 H   0  0  0  0  0  0  0  0  0  0  0  0
   -2.1394    0.5996    0.0000 H   0  0  0  0  0  0  0  0  0  0  0  0
  1  2  1  0  0  0  0
  1  9  1  0  0  0  0
  1 19  1  0  0  0  0
  2  3  1  0  0  0  0
  2  7  2  0  0  0  0
  3  4  2  0  0  0  0
  3  8  1  0  0  0  0
  4  5  1  0  0  0  0
  4 35  1  0  0  0  0
  5  6  2  0  0  0  0
  5 36  1  0  0  0  0
  6  7  1  0  0  0  0
  6 37  1  0  0  0  0
  7 38  1  0  0  0  0
  8 29  1  0  0  0  0
  9 10  1  0  0  0  0
  9 16  1  0  0  0  0
  9 18  1  0  0  0  0
 10 11  1  0  0  0  0
 10 39  1  0  0  0  0
 10 40  1  0  0  0  0
 11 12  1  0  0  0  0
 11 17  1  0  0  0  0
 11 41  1  0  0  0  0
 12 13  1  0  0  0  0
 12 42  1  0  0  0  0
 12 43  1  0  0  0  0
 13 14  1  0  0  0  0
 13 18  1  0  0  0  0
 13 44  1  0  0  0  0
 14 15  1  0  0  0  0
 14 45  1  0  0  0  0
 14 46  1  0  0  0  0
 15 16  1  0  0  0  0
 15 17  1  0  0  0  0
 15 47  1  0  0  0  0
 16 48  1  0  0  0  0
 16 49  1  0  0  0  0
 17 50  1  0  0  0  0
 17 51  1  0  0  0  0
 18 52  1  0  0  0  0
 18 53  1  0  0  0  0
 19 20  1  0  0  0  0
 19 26  1  0  0  0  0
 19 28  1  0  0  0  0
 20 21  1  0  0  0  0
 20 54  1  0  0  0  0
 20 55  1  0  0  0  0
 21 22  1  0  0  0  0
 21 27  1  0  0  0  0
 21 56  1  0  0  0  0
 22 23  1  0  0  0  0
 22 57  1  0  0  0  0
 22 58  1  0  0  0  0
 23 24  1  0  0  0  0
 23 28  1  0  0  0  0
 23 59  1  0  0  0  0
 24 25  1  0  0  0  0
 24 60  1  0  0  0  0
 24 61  1  0  0  0  0
 25 26  1  0  0  0  0
 25 27  1  0  0  0  0
 25 62  1  0  0  0  0
 26 63  1  0  0  0  0
 26 64  1  0  0  0  0
 27 65  1  0  0  0  0
 27 66  1  0  0  0  0
 28 67  1  0  0  0  0
 28 68  1  0  0  0  0
 29 30  2  0  0  0  0
 29 33  1  0  0  0  0
 30 31  1  0  0  0  0
 30 69  1  0  0  0  0
 31 32  2  0  0  0  0
 31 70  1  0  0  0  0
 32  8  1  0  0  0  0
 32 34  1  0  0  0  0
 33 71  1  0  0  0  0
 33 72  1  0  0  0  0
 33 73  1  0  0  0  0
 34 74  1  0  0  0  0
 34 75  1  0  0  0  0
 34 76  1  0  0  0  0
M  END
> <NMREDATA_VERSION>
1.1

> <NMREDATA_LEVEL>
0

> <NMREDATA_FORMULA>
C32H42NP

> <NMREDATA_SMILES>
Cc1ccc(n1c1ccccc1P(C12CC3CC(C2)CC(C1)C3)C12CC3CC(C2)CC(C1)C3)C

> <NMREDATA_ASSIGNMENT>
P1, 21.90, 1

> <NMREDATA_1D_31P>
21.90, L=P1

$$$$
