manual_00013.mol
 OpenBabel05202308372D

 63 67  0  0  0  0  0  0  0  0999 V2000
   -0.3732    1.9419    0.0000 N   0  0  0  0  0  0  0  0  0  0  0  0
    0.1117    1.2745    0.0000 C   0  0  0  0  0  0  0  0  0  0  0  0
   -0.3732    0.6070    0.0000 C   0  0  0  0  0  0  0  0  0  0  0  0
   -1.1578    0.8620    0.0000 C   0  0  0  0  0  0  0  0  0  0  0  0
   -1.8723    0.4495    0.0000 C   0  0  0  0  0  0  0  0  0  0  0  0
   -2.5867    0.8620    0.0000 C   0  0  0  0  0  0  0  0  0  0  0  0
   -2.5867    1.6870    0.0000 C   0  0  0  0  0  0  0  0  0  0  0  0
   -1.8723    2.0995    0.0000 C   0  0  0  0  0  0  0  0  0  0  0  0
   -1.1578    1.6870    0.0000 C   0  0  0  0  0  0  0  0  0  0  0  0
   -0.1182    2.7265    0.0000 C   0  0  0  0  0  0  0  0  0  0  0  0
    0.9367    1.2745    0.0000 C   0  0  0  0  0  0  0  0  0  0  0  0
    1.3492    0.5600    0.0000 C   0  0  0  0  0  0  0  0  0  0  0  0
    2.1742    0.5600    0.0000 C   0  0  0  0  0  0  0  0  0  0  0  0
    2.5867    1.2745    0.0000 C   0  0  0  0  0  0  0  0  0  0  0  0
    2.1742    1.9890    0.0000 C   0  0  0  0  0  0  0  0  0  0  0  0
    1.3492    1.9890    0.0000 C   0  0  0  0  0  0  0  0  0  0  0  0
    0.6892   -0.5831    0.0000 P   0  0  0  0  0  0  0  0  0  0  0  0
    1.1017   -1.2976    0.0000 C   0  0  0  0  0  0  0  0  0  0  0  0
    0.6892   -2.0121    0.0000 C   0  0  0  0  0  0  0  0  0  0  0  0
    1.1017   -2.7265    0.0000 C   0  0  0  0  0  0  0  0  0  0  0  0
    1.9267   -2.7265    0.0000 C   0  0  0  0  0  0  0  0  0  0  0  0
    2.3392   -2.0121    0.0000 C   0  0  0  0  0  0  0  0  0  0  0  0
    1.9267   -1.2976    0.0000 C   0  0  0  0  0  0  0  0  0  0  0  0
   -0.1358   -0.5831    0.0000 C   0  0  0  0  0  0  0  0  0  0  0  0
   -0.5483    0.1313    0.0000 C   0  0  0  0  0  0  0  0  0  0  0  0
   -1.3733    0.1313    0.0000 C   0  0  0  0  0  0  0  0  0  0  0  0
   -1.7858   -0.5831    0.0000 C   0  0  0  0  0  0  0  0  0  0  0  0
   -1.3733   -1.2976    0.0000 C   0  0  0  0  0  0  0  0  0  0  0  0
   -0.5483   -1.2976    0.0000 C   0  0  0  0  0  0  0  0  0  0  0  0
   -0.0543   -0.3745    0.0000 H   0  0  0  0  0  0  0  0  0  0  0  0
   -1.8723   -0.5825    0.0000 H   0  0  0  0  0  0  0  0  0  0  0  0
   -3.4804    0.3460    0.0000 H   0  0  0  0  0  0  0  0  0  0  0  0
   -3.4804    2.2030    0.0000 H   0  0  0  0  0  0  0  0  0  0  0  0
   -1.8723    3.1315    0.0000 H   0  0  0  0  0  0  0  0  0  0  0  0
    0.9284    2.9489    0.0000 H   0  0  0  0  0  0  0  0  0  0  0  0
   -0.8341    3.5217    0.0000 H   0  0  0  0  0  0  0  0  0  0  0  0
    0.2125    3.7441    0.0000 H   0  0  0  0  0  0  0  0  0  0  0  0
    2.6902   -0.3337    0.0000 H   0  0  0  0  0  0  0  0  0  0  0  0
    3.6187    1.2745    0.0000 H   0  0  0  0  0  0  0  0  0  0  0  0
    2.6902    2.8827    0.0000 H   0  0  0  0  0  0  0  0  0  0  0  0
    0.8332    2.8827    0.0000 H   0  0  0  0  0  0  0  0  0  0  0  0
    1.6367   -0.3710    0.0000 H   0  0  0  0  0  0  0  0  0  0  0  0
   -0.3808   -2.0121    0.0000 H   0  0  0  0  0  0  0  0  0  0  0  0
    0.1542   -2.9388    0.0000 H   0  0  0  0  0  0  0  0  0  0  0  0
    0.5667   -3.6532    0.0000 H   0  0  0  0  0  0  0  0  0  0  0  0
    1.6367   -3.6531    0.0000 H   0  0  0  0  0  0  0  0  0  0  0  0
    2.4617   -3.6532    0.0000 H   0  0  0  0  0  0  0  0  0  0  0  0
    2.9967   -2.7265    0.0000 H   0  0  0  0  0  0  0  0  0  0  0  0
    3.4092   -2.0121    0.0000 H   0  0  0  0  0  0  0  0  0  0  0  0
    2.8742   -1.0855    0.0000 H   0  0  0  0  0  0  0  0  0  0  0  0
    2.4617   -0.3710    0.0000 H   0  0  0  0  0  0  0  0  0  0  0  0
    1.3917   -0.3710    0.0000 H   0  0  0  0  0  0  0  0  0  0  0  0
    0.3992   -1.5097    0.0000 H   0  0  0  0  0  0  0  0  0  0  0  0
   -0.0133    1.0580    0.0000 H   0  0  0  0  0  0  0  0  0  0  0  0
   -1.0833    1.0579    0.0000 H   0  0  0  0  0  0  0  0  0  0  0  0
   -1.9083    1.0580    0.0000 H   0  0  0  0  0  0  0  0  0  0  0  0
   -2.4433    0.1313    0.0000 H   0  0  0  0  0  0  0  0  0  0  0  0
   -2.8558   -0.5831    0.0000 H   0  0  0  0  0  0  0  0  0  0  0  0
   -2.3208   -1.5097    0.0000 H   0  0  0  0  0  0  0  0  0  0  0  0
   -1.9083   -2.2242    0.0000 H   0  0  0  0  0  0  0  0  0  0  0  0
   -0.8383   -2.2242    0.0000 H   0  0  0  0  0  0  0  0  0  0  0  0
   -0.0133   -2.2242    0.0000 H   0  0  0  0  0  0  0  0  0  0  0  0
    0.5217   -1.2976    0.0000 H   0  0  0  0  0  0  0  0  0  0  0  0
  1  2  1  0  0  0  0
  1  9  1  0  0  0  0
  1 10  1  0  0  0  0
  2  3  2  0  0  0  0
  2 11  1  0  0  0  0
  3  4  1  0  0  0  0
  3 30  1  0  0  0  0
  4  5  1  0  0  0  0
  4  9  2  0  0  0  0
  5  6  2  0  0  0  0
  5 31  1  0  0  0  0
  6  7  1  0  0  0  0
  6 32  1  0  0  0  0
  7  8  2  0  0  0  0
  7 33  1  0  0  0  0
  8  9  1  0  0  0  0
  8 34  1  0  0  0  0
 10 35  1  0  0  0  0
 10 36  1  0  0  0  0
 10 37  1  0  0  0  0
 11 12  1  0  0  0  0
 11 16  2  0  0  0  0
 12 13  2  0  0  0  0
 12 17  1  0  0  0  0
 13 14  1  0  0  0  0
 13 38  1  0  0  0  0
 14 15  2  0  0  0  0
 14 39  1  0  0  0  0
 15 16  1  0  0  0  0
 15 40  1  0  0  0  0
 16 41  1  0  0  0  0
 17 18  1  0  0  0  0
 17 24  1  0  0  0  0
 18 19  1  0  0  0  0
 18 23  1  0  0  0  0
 18 42  1  0  0  0  0
 19 20  1  0  0  0  0
 19 43  1  0  0  0  0
 19 44  1  0  0  0  0
 20 21  1  0  0  0  0
 20 45  1  0  0  0  0
 20 46  1  0  0  0  0
 21 22  1  0  0  0  0
 21 47  1  0  0  0  0
 21 48  1  0  0  0  0
 22 23  1  0  0  0  0
 22 49  1  0  0  0  0
 22 50  1  0  0  0  0
 23 51  1  0  0  0  0
 23 52  1  0  0  0  0
 24 25  1  0  0  0  0
 24 29  1  0  0  0  0
 24 53  1  0  0  0  0
 25 26  1  0  0  0  0
 25 54  1  0  0  0  0
 25 55  1  0  0  0  0
 26 27  1  0  0  0  0
 26 56  1  0  0  0  0
 26 57  1  0  0  0  0
 27 28  1  0  0  0  0
 27 58  1  0  0  0  0
 27 59  1  0  0  0  0
 28 29  1  0  0  0  0
 28 60  1  0  0  0  0
 28 61  1  0  0  0  0
 29 62  1  0  0  0  0
 29 63  1  0  0  0  0
M  END
> <NMREDATA_VERSION>
1.1

> <NMREDATA_LEVEL>
0

> <NMREDATA_FORMULA>
C27H34NP

> <NMREDATA_SMILES>
Cn1c(cc2c1cccc2)c1ccccc1P(C1CCCCC1)C1CCCCC1

> <NMREDATA_ASSIGNMENT>
P17, -9.87, 17

> <NMREDATA_1D_31P>
-9.87, L=P17

$$$$
