manual_00036.mol
 OpenBabel06122522452D

 86 89  0  0  1  0  0  0  0  0999 V2000
   -0.1098   -0.3495    0.0000 O   0  0  0  0  0  0  0  0  0  0  0  0
    0.3751    0.3180    0.0000 C   0  0  1  0  0  0  0  0  0  0  0  0
   -0.1098    0.9854    0.0000 P   0  0  2  0  0  0  0  0  0  0  0  0
   -0.8945    0.7305    0.0000 C   0  0  0  0  0  0  0  0  0  0  0  0
   -0.8945   -0.0945    0.0000 C   0  0  0  0  0  0  0  0  0  0  0  0
   -1.6089    1.1430    0.0000 C   0  0  0  0  0  0  0  0  0  0  0  0
   -2.3234    0.7305    0.0000 C   0  0  0  0  0  0  0  0  0  0  0  0
   -2.3234   -0.0945    0.0000 C   0  0  0  0  0  0  0  0  0  0  0  0
   -1.6089   -0.5070    0.0000 C   0  0  0  0  0  0  0  0  0  0  0  0
    1.4476    0.3180    0.0000 C   0  0  0  0  0  0  0  0  0  0  0  0
    1.9838   -0.6108    0.0000 C   0  0  0  0  0  0  0  0  0  0  0  0
    2.8088   -0.6108    0.0000 C   0  0  0  0  0  0  0  0  0  0  0  0
    3.2213   -1.3253    0.0000 C   0  0  0  0  0  0  0  0  0  0  0  0
    2.8088   -2.0398    0.0000 C   0  0  0  0  0  0  0  0  0  0  0  0
    1.9838   -2.0398    0.0000 C   0  0  0  0  0  0  0  0  0  0  0  0
    1.5713   -1.3253    0.0000 C   0  0  0  0  0  0  0  0  0  0  0  0
    0.7463   -1.3253    0.0000 C   0  0  0  0  0  0  0  0  0  0  0  0
    0.3338   -0.6108    0.0000 C   0  0  0  0  0  0  0  0  0  0  0  0
    0.3338   -2.0398    0.0000 C   0  0  0  0  0  0  0  0  0  0  0  0
    3.2213   -2.7542    0.0000 C   0  0  0  0  0  0  0  0  0  0  0  0
    2.8088   -3.4687    0.0000 C   0  0  0  0  0  0  0  0  0  0  0  0
    4.0463   -2.7542    0.0000 C   0  0  0  0  0  0  0  0  0  0  0  0
    3.2213    0.1036    0.0000 C   0  0  0  0  0  0  0  0  0  0  0  0
    2.8088    0.8181    0.0000 C   0  0  0  0  0  0  0  0  0  0  0  0
    4.0463    0.1036    0.0000 C   0  0  0  0  0  0  0  0  0  0  0  0
   -0.0435    2.6320    0.0000 C   0  0  0  0  0  0  0  0  0  0  0  0
    0.3937    1.9324    0.0000 C   0  0  0  0  0  0  0  0  0  0  0  0
    0.7810    2.6608    0.0000 C   0  0  0  0  0  0  0  0  0  0  0  0
    1.2182    1.9612    0.0000 C   0  0  0  0  0  0  0  0  0  0  0  0
   -1.8911    1.9182    0.0000 C   0  0  0  0  0  0  0  0  0  0  0  0
   -2.7036    2.0615    0.0000 C   0  0  0  0  0  0  0  0  0  0  0  0
   -2.9857    2.8367    0.0000 C   0  0  0  0  0  0  0  0  0  0  0  0
   -2.4554    3.4687    0.0000 C   0  0  0  0  0  0  0  0  0  0  0  0
   -1.6430    3.3255    0.0000 C   0  0  0  0  0  0  0  0  0  0  0  0
   -1.3608    2.5502    0.0000 C   0  0  0  0  0  0  0  0  0  0  0  0
   -0.5483    2.4070    0.0000 O   0  0  0  0  0  0  0  0  0  0  0  0
   -0.1358    3.1214    0.0000 C   0  0  0  0  0  0  0  0  0  0  0  0
   -3.2339    1.4295    0.0000 O   0  0  0  0  0  0  0  0  0  0  0  0
   -4.0463    1.5728    0.0000 C   0  0  0  0  0  0  0  0  0  0  0  0
    0.8609   -0.6354    0.0000 H   0  0  0  0  0  0  0  0  0  0  0  0
   -3.2171    1.2465    0.0000 H   0  0  0  0  0  0  0  0  0  0  0  0
   -3.2171   -0.6105    0.0000 H   0  0  0  0  0  0  0  0  0  0  0  0
   -1.6089   -1.5390    0.0000 H   0  0  0  0  0  0  0  0  0  0  0  0
    1.9826    1.2446    0.0000 H   0  0  0  0  0  0  0  0  0  0  0  0
    0.9126    1.2447    0.0000 H   0  0  0  0  0  0  0  0  0  0  0  0
    4.2533   -1.3253    0.0000 H   0  0  0  0  0  0  0  0  0  0  0  0
    1.4678   -2.9335    0.0000 H   0  0  0  0  0  0  0  0  0  0  0  0
    1.2813   -2.2519    0.0000 H   0  0  0  0  0  0  0  0  0  0  0  0
    0.8688    0.3158    0.0000 H   0  0  0  0  0  0  0  0  0  0  0  0
   -0.7362   -0.6108    0.0000 H   0  0  0  0  0  0  0  0  0  0  0  0
   -0.2012    0.3159    0.0000 H   0  0  0  0  0  0  0  0  0  0  0  0
   -0.7362   -2.0398    0.0000 H   0  0  0  0  0  0  0  0  0  0  0  0
    0.8688   -2.9664    0.0000 H   0  0  0  0  0  0  0  0  0  0  0  0
   -0.2012   -2.9665    0.0000 H   0  0  0  0  0  0  0  0  0  0  0  0
    3.7563   -1.8275    0.0000 H   0  0  0  0  0  0  0  0  0  0  0  0
    1.7388   -3.4687    0.0000 H   0  0  0  0  0  0  0  0  0  0  0  0
    3.3438   -4.3953    0.0000 H   0  0  0  0  0  0  0  0  0  0  0  0
    2.2738   -4.3954    0.0000 H   0  0  0  0  0  0  0  0  0  0  0  0
    4.5813   -3.6808    0.0000 H   0  0  0  0  0  0  0  0  0  0  0  0
    4.5813   -1.8276    0.0000 H   0  0  0  0  0  0  0  0  0  0  0  0
    5.1163   -2.7542    0.0000 H   0  0  0  0  0  0  0  0  0  0  0  0
    3.7563   -0.8231    0.0000 H   0  0  0  0  0  0  0  0  0  0  0  0
    3.3438    1.7447    0.0000 H   0  0  0  0  0  0  0  0  0  0  0  0
    1.7388    0.8181    0.0000 H   0  0  0  0  0  0  0  0  0  0  0  0
    2.2738    1.7448    0.0000 H   0  0  0  0  0  0  0  0  0  0  0  0
    4.5813   -0.8230    0.0000 H   0  0  0  0  0  0  0  0  0  0  0  0
    4.5813    1.0302    0.0000 H   0  0  0  0  0  0  0  0  0  0  0  0
    5.1163    0.1036    0.0000 H   0  0  0  0  0  0  0  0  0  0  0  0
    0.4588    3.5768    0.0000 H   0  0  0  0  0  0  0  0  0  0  0  0
   -1.1128    2.5946    0.0000 H   0  0  0  0  0  0  0  0  0  0  0  0
   -0.6106    3.5394    0.0000 H   0  0  0  0  0  0  0  0  0  0  0  0
    1.8503    2.6981    0.0000 H   0  0  0  0  0  0  0  0  0  0  0  0
    0.2140    3.5682    0.0000 H   0  0  0  0  0  0  0  0  0  0  0  0
    1.2833    3.6056    0.0000 H   0  0  0  0  0  0  0  0  0  0  0  0
    1.7852    1.0538    0.0000 H   0  0  0  0  0  0  0  0  0  0  0  0
    1.7205    2.9060    0.0000 H   0  0  0  0  0  0  0  0  0  0  0  0
    2.2875    1.9986    0.0000 H   0  0  0  0  0  0  0  0  0  0  0  0
   -4.0020    3.0159    0.0000 H   0  0  0  0  0  0  0  0  0  0  0  0
   -2.8084    4.4385    0.0000 H   0  0  0  0  0  0  0  0  0  0  0  0
   -0.9797    4.1161    0.0000 H   0  0  0  0  0  0  0  0  0  0  0  0
    0.9342    3.1214    0.0000 H   0  0  0  0  0  0  0  0  0  0  0  0
   -0.6708    4.0481    0.0000 H   0  0  0  0  0  0  0  0  0  0  0  0
    0.3992    4.0480    0.0000 H   0  0  0  0  0  0  0  0  0  0  0  0
   -4.4122    2.5783    0.0000 H   0  0  0  0  0  0  0  0  0  0  0  0
   -4.7341    0.7532    0.0000 H   0  0  0  0  0  0  0  0  0  0  0  0
   -5.1000    1.7587    0.0000 H   0  0  0  0  0  0  0  0  0  0  0  0
  1  2  1  0  0  0  0
  1  5  1  0  0  0  0
  2  3  1  0  0  0  0
  2 10  1  0  0  0  0
  2 40  1  6  0  0  0
  3  4  1  0  0  0  0
  3 27  1  6  0  0  0
  4  5  1  0  0  0  0
  6  7  1  0  0  0  0
  6  4  2  0  0  0  0
  6 30  1  0  0  0  0
  7  8  2  0  0  0  0
  7 41  1  0  0  0  0
  8  9  1  0  0  0  0
  8 42  1  0  0  0  0
  9  5  2  0  0  0  0
  9 43  1  0  0  0  0
 10 11  1  0  0  0  0
 10 44  1  0  0  0  0
 10 45  1  0  0  0  0
 11 12  1  0  0  0  0
 11 16  2  0  0  0  0
 12 13  2  0  0  0  0
 12 23  1  0  0  0  0
 13 14  1  0  0  0  0
 13 46  1  0  0  0  0
 14 15  2  0  0  0  0
 14 20  1  0  0  0  0
 15 16  1  0  0  0  0
 15 47  1  0  0  0  0
 16 17  1  0  0  0  0
 17 18  1  0  0  0  0
 17 19  1  0  0  0  0
 17 48  1  0  0  0  0
 18 49  1  0  0  0  0
 18 50  1  0  0  0  0
 18 51  1  0  0  0  0
 19 52  1  0  0  0  0
 19 53  1  0  0  0  0
 19 54  1  0  0  0  0
 20 21  1  0  0  0  0
 20 22  1  0  0  0  0
 20 55  1  0  0  0  0
 21 56  1  0  0  0  0
 21 57  1  0  0  0  0
 21 58  1  0  0  0  0
 22 59  1  0  0  0  0
 22 60  1  0  0  0  0
 22 61  1  0  0  0  0
 23 24  1  0  0  0  0
 23 25  1  0  0  0  0
 23 62  1  0  0  0  0
 24 63  1  0  0  0  0
 24 64  1  0  0  0  0
 24 65  1  0  0  0  0
 25 66  1  0  0  0  0
 25 67  1  0  0  0  0
 25 68  1  0  0  0  0
 26 27  1  0  0  0  0
 26 69  1  0  0  0  0
 26 70  1  0  0  0  0
 26 71  1  0  0  0  0
 27 28  1  0  0  0  0
 27 29  1  0  0  0  0
 28 72  1  0  0  0  0
 28 73  1  0  0  0  0
 28 74  1  0  0  0  0
 29 75  1  0  0  0  0
 29 76  1  0  0  0  0
 29 77  1  0  0  0  0
 30 31  1  0  0  0  0
 30 35  2  0  0  0  0
 31 32  2  0  0  0  0
 31 38  1  0  0  0  0
 32 33  1  0  0  0  0
 32 78  1  0  0  0  0
 33 34  2  0  0  0  0
 33 79  1  0  0  0  0
 34 35  1  0  0  0  0
 34 80  1  0  0  0  0
 35 36  1  0  0  0  0
 36 37  1  0  0  0  0
 37 81  1  0  0  0  0
 37 82  1  0  0  0  0
 37 83  1  0  0  0  0
 38 39  1  0  0  0  0
 39 84  1  0  0  0  0
 39 85  1  0  0  0  0
 39 86  1  0  0  0  0
M  END
> <NMREDATA_VERSION>
1.1

> <NMREDATA_LEVEL>
0

> <NMREDATA_FORMULA>
C35H47O3P

> <NMREDATA_SMILES>
COc1cccc(c1c1cccc2c1P([C@H](O2)Cc1c(cc(cc1C(C)C)C(C)C)C(C)C)C(C)(C)C)OC

> <NMREDATA_ASSIGNMENT>
P3, 9.47, 3

> <NMREDATA_1D_31P>
9.47, L=P3

$$$$
