manual_00057.mol
 OpenBabel06122522452D

 30 31  0  0  0  0  0  0  0  0999 V2000
    0.4678    0.8250    0.0000 C   0  0  0  0  0  0  0  0  0  0  0  0
    0.4678    0.0000    0.0000 C   0  0  0  0  0  0  0  0  0  0  0  0
    1.1822   -0.4125    0.0000 C   0  0  0  0  0  0  0  0  0  0  0  0
    1.8967    0.0000    0.0000 C   0  0  0  0  0  0  0  0  0  0  0  0
    1.8967    0.8250    0.0000 C   0  0  0  0  0  0  0  0  0  0  0  0
    1.1822    1.2375    0.0000 C   0  0  0  0  0  0  0  0  0  0  0  0
   -0.2467   -0.4125    0.0000 P   0  0  3  0  0  0  0  0  0  0  0  0
   -1.0717   -0.4125    0.0000 C   0  0  0  0  0  0  0  0  0  0  0  0
   -1.4842   -1.1270    0.0000 C   0  0  0  0  0  0  0  0  0  0  0  0
   -1.4842    0.3020    0.0000 C   0  0  0  0  0  0  0  0  0  0  0  0
   -1.8967   -0.4125    0.0000 C   0  0  0  0  0  0  0  0  0  0  0  0
    0.3229   -1.2203    0.0000 C   0  0  0  0  0  0  0  0  0  0  0  0
   -0.4602   -1.2094    0.0000 O   0  0  0  0  0  0  0  0  0  0  0  0
   -0.2467    1.2375    0.0000 O   0  0  0  0  0  0  0  0  0  0  0  0
    1.1822   -1.2375    0.0000 O   0  0  0  0  0  0  0  0  0  0  0  0
    2.7904   -0.5160    0.0000 H   0  0  0  0  0  0  0  0  0  0  0  0
    2.7904    1.3410    0.0000 H   0  0  0  0  0  0  0  0  0  0  0  0
    1.1822    2.2695    0.0000 H   0  0  0  0  0  0  0  0  0  0  0  0
   -2.5542   -1.1270    0.0000 H   0  0  0  0  0  0  0  0  0  0  0  0
   -0.9492   -2.0536    0.0000 H   0  0  0  0  0  0  0  0  0  0  0  0
   -2.0192   -2.0537    0.0000 H   0  0  0  0  0  0  0  0  0  0  0  0
   -0.9492    1.2286    0.0000 H   0  0  0  0  0  0  0  0  0  0  0  0
   -2.5542    0.3020    0.0000 H   0  0  0  0  0  0  0  0  0  0  0  0
   -2.0192    1.2287    0.0000 H   0  0  0  0  0  0  0  0  0  0  0  0
   -2.4317    0.5141    0.0000 H   0  0  0  0  0  0  0  0  0  0  0  0
   -2.4317   -1.3391    0.0000 H   0  0  0  0  0  0  0  0  0  0  0  0
   -2.9667   -0.4125    0.0000 H   0  0  0  0  0  0  0  0  0  0  0  0
   -0.1791   -2.1652    0.0000 H   0  0  0  0  0  0  0  0  0  0  0  0
    0.8650   -2.1428    0.0000 H   0  0  0  0  0  0  0  0  0  0  0  0
   -0.2467    2.1745    0.0000 H   0  0  0  0  0  0  0  0  0  0  0  0
  1  2  2  0  0  0  0
  1 14  1  0  0  0  0
  2  3  1  0  0  0  0
  2  7  1  0  0  0  0
  3  4  2  0  0  0  0
  3 15  1  0  0  0  0
  4  5  1  0  0  0  0
  4 16  1  0  0  0  0
  5  6  2  0  0  0  0
  5 17  1  0  0  0  0
  6  1  1  0  0  0  0
  6 18  1  0  0  0  0
  7  8  1  0  0  0  0
  7 12  1  0  0  0  0
  7 13  2  0  0  0  0
  8  9  1  0  0  0  0
  8 10  1  0  0  0  0
  8 11  1  0  0  0  0
  9 19  1  0  0  0  0
  9 20  1  0  0  0  0
  9 21  1  0  0  0  0
 10 22  1  0  0  0  0
 10 23  1  0  0  0  0
 10 24  1  0  0  0  0
 11 25  1  0  0  0  0
 11 26  1  0  0  0  0
 11 27  1  0  0  0  0
 12 15  1  0  0  0  0
 12 28  1  0  0  0  0
 12 29  1  0  0  0  0
 14 30  1  0  0  0  0
M  END
> <NMREDATA_VERSION>
1.1

> <NMREDATA_LEVEL>
0

> <NMREDATA_FORMULA>
C11H15O3P

> <NMREDATA_SMILES>
Oc1cccc2c1P(=O)(CO2)C(C)(C)C

> <NMREDATA_ASSIGNMENT>
P7, 68.70, 7

> <NMREDATA_1D_31P>
68.70, L=P7

$$$$
