manual_00025.mol
 OpenBabel05202308372D

 59 62  0  0  0  0  0  0  0  0999 V2000
   -0.6600   -1.0559    0.0000 P   0  0  0  0  0  0  0  0  0  0  0  0
    0.6601   -1.0559    0.0000 C   0  0  0  0  0  0  0  0  0  0  0  0
    1.0725   -0.3414    0.0000 C   0  0  0  0  0  0  0  0  0  0  0  0
    1.8976   -0.3414    0.0000 C   0  0  0  0  0  0  0  0  0  0  0  0
    2.3100   -1.0559    0.0000 C   0  0  0  0  0  0  0  0  0  0  0  0
    1.8976   -1.7704    0.0000 C   0  0  0  0  0  0  0  0  0  0  0  0
    1.0725   -1.7704    0.0000 C   0  0  0  0  0  0  0  0  0  0  0  0
   -0.9718    3.1994    0.0000 O   0  0  0  0  0  0  0  0  0  0  0  0
   -0.1468    3.1994    0.0000 C   0  0  0  0  0  0  0  0  0  0  0  0
    0.2657    2.4850    0.0000 C   0  0  0  0  0  0  0  0  0  0  0  0
   -0.1468    1.7705    0.0000 N   0  0  0  0  0  0  0  0  0  0  0  0
   -0.9718    1.7705    0.0000 C   0  0  0  0  0  0  0  0  0  0  0  0
   -1.3843    2.4850    0.0000 C   0  0  0  0  0  0  0  0  0  0  0  0
   -1.0724   -0.3414    0.0000 C   0  0  0  0  0  0  0  0  0  0  0  0
   -1.0724   -1.7704    0.0000 C   0  0  0  0  0  0  0  0  0  0  0  0
   -0.6598    0.3730    0.0000 C   0  0  0  0  0  0  0  0  0  0  0  0
   -1.0724    1.0875    0.0000 C   0  0  0  0  0  0  0  0  0  0  0  0
   -1.8974    1.0875    0.0000 C   0  0  0  0  0  0  0  0  0  0  0  0
   -2.3100    0.3730    0.0000 C   0  0  0  0  0  0  0  0  0  0  0  0
   -1.8974   -0.3414    0.0000 C   0  0  0  0  0  0  0  0  0  0  0  0
   -1.8974   -1.7705    0.0000 C   0  0  0  0  0  0  0  0  0  0  0  0
   -2.3098   -2.4850    0.0000 C   0  0  0  0  0  0  0  0  0  0  0  0
   -1.8974   -3.1994    0.0000 C   0  0  0  0  0  0  0  0  0  0  0  0
   -1.0724   -3.1994    0.0000 C   0  0  0  0  0  0  0  0  0  0  0  0
   -0.6600   -2.4850    0.0000 C   0  0  0  0  0  0  0  0  0  0  0  0
    2.4137    0.5523    0.0000 H   0  0  0  0  0  0  0  0  0  0  0  0
    3.3420   -1.0559    0.0000 H   0  0  0  0  0  0  0  0  0  0  0  0
    2.4137   -2.6641    0.0000 H   0  0  0  0  0  0  0  0  0  0  0  0
    0.5564   -2.6641    0.0000 H   0  0  0  0  0  0  0  0  0  0  0  0
    0.3882    4.1261    0.0000 H   0  0  0  0  0  0  0  0  0  0  0  0
    0.9232    3.1994    0.0000 H   0  0  0  0  0  0  0  0  0  0  0  0
    1.3357    2.4850    0.0000 H   0  0  0  0  0  0  0  0  0  0  0  0
    0.8007    1.5584    0.0000 H   0  0  0  0  0  0  0  0  0  0  0  0
   -1.5068    0.8439    0.0000 H   0  0  0  0  0  0  0  0  0  0  0  0
   -2.0418    1.7705    0.0000 H   0  0  0  0  0  0  0  0  0  0  0  0
   -2.4543    2.4850    0.0000 H   0  0  0  0  0  0  0  0  0  0  0  0
   -1.9193    3.4117    0.0000 H   0  0  0  0  0  0  0  0  0  0  0  0
   -1.6073    0.5853    0.0000 H   0  0  0  0  0  0  0  0  0  0  0  0
   -1.6074   -2.6970    0.0000 H   0  0  0  0  0  0  0  0  0  0  0  0
    0.4102    0.3730    0.0000 H   0  0  0  0  0  0  0  0  0  0  0  0
   -0.1248    1.2997    0.0000 H   0  0  0  0  0  0  0  0  0  0  0  0
   -0.5374    2.0142    0.0000 H   0  0  0  0  0  0  0  0  0  0  0  0
   -1.6074    2.0141    0.0000 H   0  0  0  0  0  0  0  0  0  0  0  0
   -2.4324    2.0142    0.0000 H   0  0  0  0  0  0  0  0  0  0  0  0
   -2.9674    1.0876    0.0000 H   0  0  0  0  0  0  0  0  0  0  0  0
   -3.3800    0.3730    0.0000 H   0  0  0  0  0  0  0  0  0  0  0  0
   -2.8449   -0.5537    0.0000 H   0  0  0  0  0  0  0  0  0  0  0  0
   -2.4323   -1.2681    0.0000 H   0  0  0  0  0  0  0  0  0  0  0  0
   -1.3624   -1.2680    0.0000 H   0  0  0  0  0  0  0  0  0  0  0  0
   -2.4325   -0.8439    0.0000 H   0  0  0  0  0  0  0  0  0  0  0  0
   -2.9674   -1.7706    0.0000 H   0  0  0  0  0  0  0  0  0  0  0  0
   -3.3798   -2.4850    0.0000 H   0  0  0  0  0  0  0  0  0  0  0  0
   -2.8448   -3.4116    0.0000 H   0  0  0  0  0  0  0  0  0  0  0  0
   -2.4324   -4.1260    0.0000 H   0  0  0  0  0  0  0  0  0  0  0  0
   -1.3624   -4.1261    0.0000 H   0  0  0  0  0  0  0  0  0  0  0  0
   -0.5374   -4.1260    0.0000 H   0  0  0  0  0  0  0  0  0  0  0  0
   -0.0024   -3.1994    0.0000 H   0  0  0  0  0  0  0  0  0  0  0  0
    0.4100   -2.4851    0.0000 H   0  0  0  0  0  0  0  0  0  0  0  0
   -0.1249   -1.5584    0.0000 H   0  0  0  0  0  0  0  0  0  0  0  0
  1  2  1  0  0  0  0
  1 14  1  0  0  0  0
  1 15  1  0  0  0  0
  2  3  1  0  0  0  0
  2  7  2  0  0  0  0
  3  4  2  0  0  0  0
  3 11  1  0  0  0  0
  4  5  1  0  0  0  0
  4 26  1  0  0  0  0
  5  6  2  0  0  0  0
  5 27  1  0  0  0  0
  6  7  1  0  0  0  0
  6 28  1  0  0  0  0
  7 29  1  0  0  0  0
  8  9  1  0  0  0  0
  8 13  1  0  0  0  0
  9 10  1  0  0  0  0
  9 30  1  0  0  0  0
  9 31  1  0  0  0  0
 10 11  1  0  0  0  0
 10 32  1  0  0  0  0
 10 33  1  0  0  0  0
 11 12  1  0  0  0  0
 12 13  1  0  0  0  0
 12 34  1  0  0  0  0
 12 35  1  0  0  0  0
 13 36  1  0  0  0  0
 13 37  1  0  0  0  0
 14 16  1  0  0  0  0
 14 38  1  0  0  0  0
 15 21  1  0  0  0  0
 15 39  1  0  0  0  0
 16 17  1  0  0  0  0
 16 40  1  0  0  0  0
 16 41  1  0  0  0  0
 17 18  1  0  0  0  0
 17 42  1  0  0  0  0
 17 43  1  0  0  0  0
 18 19  1  0  0  0  0
 18 44  1  0  0  0  0
 18 45  1  0  0  0  0
 19 20  1  0  0  0  0
 19 46  1  0  0  0  0
 19 47  1  0  0  0  0
 20 14  1  0  0  0  0
 20 48  1  0  0  0  0
 20 49  1  0  0  0  0
 21 22  1  0  0  0  0
 21 50  1  0  0  0  0
 21 51  1  0  0  0  0
 22 23  1  0  0  0  0
 22 52  1  0  0  0  0
 22 53  1  0  0  0  0
 23 24  1  0  0  0  0
 23 54  1  0  0  0  0
 23 55  1  0  0  0  0
 24 25  1  0  0  0  0
 24 56  1  0  0  0  0
 24 57  1  0  0  0  0
 25 15  1  0  0  0  0
 25 58  1  0  0  0  0
 25 59  1  0  0  0  0
M  END
> <NMREDATA_VERSION>
1.1

> <NMREDATA_LEVEL>
0

> <NMREDATA_FORMULA>
C22H34NOP

> <NMREDATA_SMILES>
C1CCC(CC1)P(c1ccccc1N1CCOCC1)C1CCCCC1

> <NMREDATA_ASSIGNMENT>
P1, -11.20, 1

> <NMREDATA_1D_31P>
-11.20, L=P1

$$$$
