manual_00003.mol
 OpenBabel05202308372D

 82 83  0  0  0  0  0  0  0  0999 V2000
   -3.4614   -2.1892    0.0000 C   0  0  0  0  0  0  0  0  0  0  0  0
   -3.4614   -1.3642    0.0000 C   0  0  0  0  0  0  0  0  0  0  0  0
   -4.1759   -0.9517    0.0000 C   0  0  0  0  0  0  0  0  0  0  0  0
   -2.7469   -0.9517    0.0000 P   0  0  0  0  0  0  0  0  0  0  0  0
   -2.0324   -1.3642    0.0000 C   0  0  0  0  0  0  0  0  0  0  0  0
   -2.0324   -2.1892    0.0000 C   0  0  0  0  0  0  0  0  0  0  0  0
   -1.3180   -0.9517    0.0000 C   0  0  0  0  0  0  0  0  0  0  0  0
   -2.7469   -0.1267    0.0000 C   0  0  0  0  0  0  0  0  0  0  0  0
   -2.0324    0.2858    0.0000 C   0  0  0  0  0  0  0  0  0  0  0  0
   -2.0324    1.1108    0.0000 C   0  0  0  0  0  0  0  0  0  0  0  0
   -2.7469    1.5233    0.0000 C   0  0  0  0  0  0  0  0  0  0  0  0
   -3.4614    1.1108    0.0000 C   0  0  0  0  0  0  0  0  0  0  0  0
   -3.4614    0.2858    0.0000 C   0  0  0  0  0  0  0  0  0  0  0  0
   -1.3180    1.5233    0.0000 C   0  0  0  0  0  0  0  0  0  0  0  0
   -4.1759   -0.1267    0.0000 O   0  0  0  0  0  0  0  0  0  0  0  0
   -4.8903    0.2858    0.0000 C   0  0  0  0  0  0  0  0  0  0  0  0
    1.9687    0.0710    0.0000 C   0  0  0  0  0  0  0  0  0  0  0  0
    2.3423   -0.6646    0.0000 C   0  0  0  0  0  0  0  0  0  0  0  0
    3.1661   -0.7088    0.0000 C   0  0  0  0  0  0  0  0  0  0  0  0
    3.6163   -0.0175    0.0000 C   0  0  0  0  0  0  0  0  0  0  0  0
    3.2427    0.7181    0.0000 C   0  0  0  0  0  0  0  0  0  0  0  0
    2.4189    0.7623    0.0000 C   0  0  0  0  0  0  0  0  0  0  0  0
    4.4401   -0.0617    0.0000 C   0  0  0  0  0  0  0  0  0  0  0  0
    4.8903    0.6296    0.0000 C   0  0  0  0  0  0  0  0  0  0  0  0
    4.8137   -0.7973    0.0000 C   0  0  0  0  0  0  0  0  0  0  0  0
    1.8921   -1.3559    0.0000 C   0  0  0  0  0  0  0  0  0  0  0  0
    2.2657   -2.0915    0.0000 C   0  0  0  0  0  0  0  0  0  0  0  0
    1.0682   -1.3117    0.0000 C   0  0  0  0  0  0  0  0  0  0  0  0
    2.0453    1.4979    0.0000 C   0  0  0  0  0  0  0  0  0  0  0  0
    2.4955    2.1892    0.0000 C   0  0  0  0  0  0  0  0  0  0  0  0
    1.2215    1.5421    0.0000 C   0  0  0  0  0  0  0  0  0  0  0  0
   -2.0324   -0.5392    0.0000 C   0  0  0  0  0  0  0  0  0  0  0  0
   -3.4614   -0.5392    0.0000 C   0  0  0  0  0  0  0  0  0  0  0  0
   -4.3880   -2.7242    0.0000 H   0  0  0  0  0  0  0  0  0  0  0  0
   -2.5348   -2.7242    0.0000 H   0  0  0  0  0  0  0  0  0  0  0  0
   -3.4614   -3.2592    0.0000 H   0  0  0  0  0  0  0  0  0  0  0  0
   -4.1759    0.1183    0.0000 H   0  0  0  0  0  0  0  0  0  0  0  0
   -5.1025   -1.4867    0.0000 H   0  0  0  0  0  0  0  0  0  0  0  0
   -5.1026   -0.4167    0.0000 H   0  0  0  0  0  0  0  0  0  0  0  0
   -2.9590   -2.7242    0.0000 H   0  0  0  0  0  0  0  0  0  0  0  0
   -1.1058   -2.7242    0.0000 H   0  0  0  0  0  0  0  0  0  0  0  0
   -2.0324   -3.2592    0.0000 H   0  0  0  0  0  0  0  0  0  0  0  0
   -0.3913   -1.4867    0.0000 H   0  0  0  0  0  0  0  0  0  0  0  0
   -1.3180    0.1183    0.0000 H   0  0  0  0  0  0  0  0  0  0  0  0
   -0.3914   -0.4167    0.0000 H   0  0  0  0  0  0  0  0  0  0  0  0
   -2.7469    2.5553    0.0000 H   0  0  0  0  0  0  0  0  0  0  0  0
   -4.3551    1.6268    0.0000 H   0  0  0  0  0  0  0  0  0  0  0  0
   -0.3913    0.9883    0.0000 H   0  0  0  0  0  0  0  0  0  0  0  0
   -1.3180    2.5933    0.0000 H   0  0  0  0  0  0  0  0  0  0  0  0
   -0.3914    2.0583    0.0000 H   0  0  0  0  0  0  0  0  0  0  0  0
   -4.8903    1.3558    0.0000 H   0  0  0  0  0  0  0  0  0  0  0  0
   -5.8170   -0.2492    0.0000 H   0  0  0  0  0  0  0  0  0  0  0  0
   -5.8169    0.8208    0.0000 H   0  0  0  0  0  0  0  0  0  0  0  0
    3.6335   -1.6289    0.0000 H   0  0  0  0  0  0  0  0  0  0  0  0
    3.8059    1.5829    0.0000 H   0  0  0  0  0  0  0  0  0  0  0  0
    5.5086   -0.1191    0.0000 H   0  0  0  0  0  0  0  0  0  0  0  0
    5.9588    0.5722    0.0000 H   0  0  0  0  0  0  0  0  0  0  0  0
    4.4058    1.5836    0.0000 H   0  0  0  0  0  0  0  0  0  0  0  0
    5.4742    1.5262    0.0000 H   0  0  0  0  0  0  0  0  0  0  0  0
    4.2298   -1.6939    0.0000 H   0  0  0  0  0  0  0  0  0  0  0  0
    5.8822   -0.8547    0.0000 H   0  0  0  0  0  0  0  0  0  0  0  0
    5.2982   -1.7513    0.0000 H   0  0  0  0  0  0  0  0  0  0  0  0
    1.3082   -2.2525    0.0000 H   0  0  0  0  0  0  0  0  0  0  0  0
    1.6818   -2.9881    0.0000 H   0  0  0  0  0  0  0  0  0  0  0  0
    3.3342   -2.1489    0.0000 H   0  0  0  0  0  0  0  0  0  0  0  0
    2.7502   -3.0455    0.0000 H   0  0  0  0  0  0  0  0  0  0  0  0
    0.5836   -0.3577    0.0000 H   0  0  0  0  0  0  0  0  0  0  0  0
    0.4843   -2.2084    0.0000 H   0  0  0  0  0  0  0  0  0  0  0  0
   -0.0003   -1.2544    0.0000 H   0  0  0  0  0  0  0  0  0  0  0  0
    1.5607    2.4519    0.0000 H   0  0  0  0  0  0  0  0  0  0  0  0
    3.5640    2.1318    0.0000 H   0  0  0  0  0  0  0  0  0  0  0  0
    2.0110    3.1432    0.0000 H   0  0  0  0  0  0  0  0  0  0  0  0
    3.0794    3.0858    0.0000 H   0  0  0  0  0  0  0  0  0  0  0  0
    0.7369    2.4961    0.0000 H   0  0  0  0  0  0  0  0  0  0  0  0
    0.6376    0.6454    0.0000 H   0  0  0  0  0  0  0  0  0  0  0  0
    0.1530    1.5994    0.0000 H   0  0  0  0  0  0  0  0  0  0  0  0
   -1.1058   -0.0042    0.0000 H   0  0  0  0  0  0  0  0  0  0  0  0
   -2.9590   -0.0042    0.0000 H   0  0  0  0  0  0  0  0  0  0  0  0
   -2.0324    0.5308    0.0000 H   0  0  0  0  0  0  0  0  0  0  0  0
   -2.5348   -0.0042    0.0000 H   0  0  0  0  0  0  0  0  0  0  0  0
   -4.3880   -0.0042    0.0000 H   0  0  0  0  0  0  0  0  0  0  0  0
   -3.4614    0.5308    0.0000 H   0  0  0  0  0  0  0  0  0  0  0  0
  1  2  1  0  0  0  0
  1 34  1  0  0  0  0
  1 35  1  0  0  0  0
  1 36  1  0  0  0  0
  2  3  1  0  0  0  0
  2  4  1  0  0  0  0
  2 33  1  0  0  0  0
  3 37  1  0  0  0  0
  3 38  1  0  0  0  0
  3 39  1  0  0  0  0
  4  5  1  0  0  0  0
  4  8  1  0  0  0  0
  5  6  1  0  0  0  0
  5 32  1  0  0  0  0
  6 40  1  0  0  0  0
  6 41  1  0  0  0  0
  6 42  1  0  0  0  0
  7  5  1  0  0  0  0
  7 43  1  0  0  0  0
  7 44  1  0  0  0  0
  7 45  1  0  0  0  0
  8  9  2  0  0  0  0
  9 10  1  0  0  0  0
 10 11  2  0  0  0  0
 10 14  1  0  0  0  0
 11 12  1  0  0  0  0
 11 46  1  0  0  0  0
 12 13  2  0  0  0  0
 12 47  1  0  0  0  0
 13  8  1  0  0  0  0
 13 15  1  0  0  0  0
 14 48  1  0  0  0  0
 14 49  1  0  0  0  0
 14 50  1  0  0  0  0
 15 16  1  0  0  0  0
 16 51  1  0  0  0  0
 16 52  1  0  0  0  0
 16 53  1  0  0  0  0
 17  9  1  0  0  0  0
 17 18  2  0  0  0  0
 18 19  1  0  0  0  0
 18 26  1  0  0  0  0
 19 20  2  0  0  0  0
 19 54  1  0  0  0  0
 20 21  1  0  0  0  0
 20 23  1  0  0  0  0
 21 22  2  0  0  0  0
 21 55  1  0  0  0  0
 22 17  1  0  0  0  0
 22 29  1  0  0  0  0
 23 24  1  0  0  0  0
 23 25  1  0  0  0  0
 23 56  1  0  0  0  0
 24 57  1  0  0  0  0
 24 58  1  0  0  0  0
 24 59  1  0  0  0  0
 25 60  1  0  0  0  0
 25 61  1  0  0  0  0
 25 62  1  0  0  0  0
 26 27  1  0  0  0  0
 26 28  1  0  0  0  0
 26 63  1  0  0  0  0
 27 64  1  0  0  0  0
 27 65  1  0  0  0  0
 27 66  1  0  0  0  0
 28 67  1  0  0  0  0
 28 68  1  0  0  0  0
 28 69  1  0  0  0  0
 29 30  1  0  0  0  0
 29 31  1  0  0  0  0
 29 70  1  0  0  0  0
 30 71  1  0  0  0  0
 30 72  1  0  0  0  0
 30 73  1  0  0  0  0
 31 74  1  0  0  0  0
 31 75  1  0  0  0  0
 31 76  1  0  0  0  0
 32 77  1  0  0  0  0
 32 78  1  0  0  0  0
 32 79  1  0  0  0  0
 33 80  1  0  0  0  0
 33 81  1  0  0  0  0
 33 82  1  0  0  0  0
M  END
> <NMREDATA_VERSION>
1.1

> <NMREDATA_LEVEL>
0

> <NMREDATA_FORMULA>
C31H49OP

> <NMREDATA_SMILES>
COc1ccc(c(c1P(C(C)(C)C)C(C)(C)C)c1c(cc(cc1C(C)C)C(C)C)C(C)C)C

> <NMREDATA_ASSIGNMENT>
P4, 35.71, 4

> <NMREDATA_1D_31P>
35.71, L=P4

$$$$
