
 OpenBabel08102311352D

 30 29  0  0  0  0  0  0  0  0999 V2000
   22.2415   -6.2174    0.0000 C   0  0  0  0  0  0  0  0  0  0  0  0
   19.6295   -6.5058    0.0000 C   0  0  0  0  0  0  0  0  0  0  0  0
   18.0752   -6.6660    0.0000 C   0  0  0  0  0  0  0  0  0  0  0  0
   16.2805   -6.8583    0.0000 C   0  0  0  0  0  0  0  0  0  0  0  0
   14.4217   -6.7622    0.0000 C   0  0  0  0  0  0  0  0  0  0  0  0
   12.6270   -6.9545    0.0000 C   0  0  0  0  0  0  0  0  0  0  0  0
    9.6625  -10.5118    0.0000 P   0  0  0  0  0  0  0  0  0  0  0  0
   21.5845  -11.2169    0.0000 P   0  0  0  0  0  0  0  0  0  0  0  0
    9.0216   -7.6595    0.0000 O   0  0  0  0  0  0  0  0  0  0  0  0
   23.2349   -8.9575    0.0000 O   0  0  0  0  0  0  0  0  0  0  0  0
   22.3376  -12.1623    0.0000 O   0  0  0  0  0  0  0  0  0  0  0  0
   19.9821  -12.4187    0.0000 O   0  0  0  0  0  0  0  0  0  0  0  0
   10.1593  -12.4668    0.0000 O   0  0  0  0  0  0  0  0  0  0  0  0
    7.9159  -10.9605    0.0000 O   0  0  0  0  0  0  0  0  0  0  0  0
   23.0059   -5.4687    0.0000 H   0  0  0  0  0  0  0  0  0  0  0  0
   23.1987   -6.6955    0.0000 H   0  0  0  0  0  0  0  0  0  0  0  0
   19.7431   -7.5698    0.0000 H   0  0  0  0  0  0  0  0  0  0  0  0
   18.9560   -7.3372    0.0000 H   0  0  0  0  0  0  0  0  0  0  0  0
   17.9634   -5.6019    0.0000 H   0  0  0  0  0  0  0  0  0  0  0  0
   17.2430   -5.9935    0.0000 H   0  0  0  0  0  0  0  0  0  0  0  0
   16.3100   -7.9279    0.0000 H   0  0  0  0  0  0  0  0  0  0  0  0
   15.5148   -7.6057    0.0000 H   0  0  0  0  0  0  0  0  0  0  0  0
   14.3922   -5.6926    0.0000 H   0  0  0  0  0  0  0  0  0  0  0  0
   13.6160   -6.0581    0.0000 H   0  0  0  0  0  0  0  0  0  0  0  0
   12.1221   -6.0111    0.0000 H   0  0  0  0  0  0  0  0  0  0  0  0
   11.5625   -6.8459    0.0000 H   0  0  0  0  0  0  0  0  0  0  0  0
   21.9827  -13.0651    0.0000 H   0  0  0  0  0  0  0  0  0  0  0  0
   19.0901  -12.0377    0.0000 H   0  0  0  0  0  0  0  0  0  0  0  0
    9.4646  -13.1438    0.0000 H   0  0  0  0  0  0  0  0  0  0  0  0
    7.2371  -10.2676    0.0000 H   0  0  0  0  0  0  0  0  0  0  0  0
  1  2  1  0  0  0  0
  1  8  1  0  0  0  0
  1 15  1  0  0  0  0
  1 16  1  0  0  0  0
  2  3  1  0  0  0  0
  2 17  1  0  0  0  0
  2 18  1  0  0  0  0
  3  4  1  0  0  0  0
  3 19  1  0  0  0  0
  3 20  1  0  0  0  0
  4  5  1  0  0  0  0
  4 21  1  0  0  0  0
  4 22  1  0  0  0  0
  5  6  1  0  0  0  0
  5 23  1  0  0  0  0
  5 24  1  0  0  0  0
  6  7  1  0  0  0  0
  6 25  1  0  0  0  0
  6 26  1  0  0  0  0
  7  9  2  0  0  0  0
  7 13  1  0  0  0  0
  7 14  1  0  0  0  0
  8 10  2  0  0  0  0
  8 11  1  0  0  0  0
  8 12  1  0  0  0  0
 11 27  1  0  0  0  0
 12 28  1  0  0  0  0
 13 29  1  0  0  0  0
 14 30  1  0  0  0  0
M  END
> <NMREDATA_VERSION>
1.1

> <NMREDATA_LEVEL>
0

> <NMREDATA_SOLVENT>
CD3OD

> <NMREDATA_FORMULA>
C6H16O6P2

> <NMREDATA_SMILES>
OP(=O)(CCCCCCP(=O)(O)O)O

> <NMREDATA_ASSIGNMENT>
P7, 31.00, 7
P8, 31.00, 8

> <NMREDATA_1D_31P>
31.00, L=P7
31.00, L=P8

$$$$
