
 OpenBabel08102311372D

 54 53  0  0  0  0  0  0  0  0999 V2000
   19.8777  -20.4254    0.0000 P   0  0  0  0  0  0  0  0  0  0  0  0
   19.9903  -21.5898    0.0000 O   0  0  0  0  0  0  0  0  0  0  0  0
   21.0420  -20.3129    0.0000 O   0  0  0  0  0  0  0  0  0  0  0  0
   18.7134  -20.5380    0.0000 O   0  0  0  0  0  0  0  0  0  0  0  0
   19.4212  -16.2004    0.0000 C   0  0  0  0  0  0  0  0  0  0  0  0
   22.6981  -15.5434    0.0000 P   0  0  0  0  0  0  0  0  0  0  0  0
   23.8679  -15.5434    0.0000 O   0  0  0  0  0  0  0  0  0  0  0  0
   22.6981  -14.3736    0.0000 O   0  0  0  0  0  0  0  0  0  0  0  0
   22.6981  -16.7131    0.0000 O   0  0  0  0  0  0  0  0  0  0  0  0
    9.1658  -14.8063    0.0000 C   0  0  0  0  0  0  0  0  0  0  0  0
   25.4943  -12.0822    0.0000 C   0  0  0  0  0  0  0  0  0  0  0  0
   26.5888  -12.4950    0.0000 C   0  0  0  0  0  0  0  0  0  0  0  0
   25.3046  -10.9279    0.0000 C   0  0  0  0  0  0  0  0  0  0  0  0
   27.6736  -17.3060    0.0000 C   0  0  0  0  0  0  0  0  0  0  0  0
   28.1345  -18.3812    0.0000 C   0  0  0  0  0  0  0  0  0  0  0  0
   28.3743  -16.3693    0.0000 C   0  0  0  0  0  0  0  0  0  0  0  0
   24.9495  -22.2735    0.0000 C   0  0  0  0  0  0  0  0  0  0  0  0
   25.0180  -23.4413    0.0000 C   0  0  0  0  0  0  0  0  0  0  0  0
   25.9266  -21.6304    0.0000 C   0  0  0  0  0  0  0  0  0  0  0  0
   15.6075  -24.8213    0.0000 C   0  0  0  0  0  0  0  0  0  0  0  0
   14.4440  -24.7001    0.0000 C   0  0  0  0  0  0  0  0  0  0  0  0
   16.0843  -25.8895    0.0000 C   0  0  0  0  0  0  0  0  0  0  0  0
   19.3876  -15.1309    0.0000 H   0  0  0  0  0  0  0  0  0  0  0  0
    8.7605  -13.8160    0.0000 H   0  0  0  0  0  0  0  0  0  0  0  0
    8.5109  -15.6524    0.0000 H   0  0  0  0  0  0  0  0  0  0  0  0
    8.1056  -14.6622    0.0000 H   0  0  0  0  0  0  0  0  0  0  0  0
   26.3219  -11.4040    0.0000 H   0  0  0  0  0  0  0  0  0  0  0  0
   26.7624  -13.5508    0.0000 H   0  0  0  0  0  0  0  0  0  0  0  0
   27.4164  -11.8168    0.0000 H   0  0  0  0  0  0  0  0  0  0  0  0
   27.5900  -12.8726    0.0000 H   0  0  0  0  0  0  0  0  0  0  0  0
   26.1322  -10.2497    0.0000 H   0  0  0  0  0  0  0  0  0  0  0  0
   24.3035  -10.5503    0.0000 H   0  0  0  0  0  0  0  0  0  0  0  0
   25.1311   -9.8721    0.0000 H   0  0  0  0  0  0  0  0  0  0  0  0
   28.7361  -17.4326    0.0000 H   0  0  0  0  0  0  0  0  0  0  0  0
   27.4936  -19.2380    0.0000 H   0  0  0  0  0  0  0  0  0  0  0  0
   29.1970  -18.5078    0.0000 H   0  0  0  0  0  0  0  0  0  0  0  0
   28.5561  -19.3647    0.0000 H   0  0  0  0  0  0  0  0  0  0  0  0
   29.4368  -16.4960    0.0000 H   0  0  0  0  0  0  0  0  0  0  0  0
   27.9528  -15.3858    0.0000 H   0  0  0  0  0  0  0  0  0  0  0  0
   29.0152  -15.5125    0.0000 H   0  0  0  0  0  0  0  0  0  0  0  0
   25.9059  -22.7534    0.0000 H   0  0  0  0  0  0  0  0  0  0  0  0
   24.1243  -24.0296    0.0000 H   0  0  0  0  0  0  0  0  0  0  0  0
   25.9744  -23.9211    0.0000 H   0  0  0  0  0  0  0  0  0  0  0  0
   25.0807  -24.5095    0.0000 H   0  0  0  0  0  0  0  0  0  0  0  0
   26.8829  -22.1103    0.0000 H   0  0  0  0  0  0  0  0  0  0  0  0
   25.8640  -20.5622    0.0000 H   0  0  0  0  0  0  0  0  0  0  0  0
   26.8204  -21.0421    0.0000 H   0  0  0  0  0  0  0  0  0  0  0  0
   14.9794  -25.6875    0.0000 H   0  0  0  0  0  0  0  0  0  0  0  0
   14.0079  -23.7230    0.0000 H   0  0  0  0  0  0  0  0  0  0  0  0
   13.8159  -25.5663    0.0000 H   0  0  0  0  0  0  0  0  0  0  0  0
   13.3798  -24.5892    0.0000 H   0  0  0  0  0  0  0  0  0  0  0  0
   15.4562  -26.7557    0.0000 H   0  0  0  0  0  0  0  0  0  0  0  0
   17.1485  -26.0003    0.0000 H   0  0  0  0  0  0  0  0  0  0  0  0
   16.5204  -26.8666    0.0000 H   0  0  0  0  0  0  0  0  0  0  0  0
  1  2  2  0  0  0  0
  1  3  1  0  0  0  0
  1  4  1  0  0  0  0
  1  5  1  0  0  0  0
  3 17  1  0  0  0  0
  4 20  1  0  0  0  0
  5  6  1  0  0  0  0
  5 10  1  0  0  0  0
  5 23  1  0  0  0  0
  6  7  2  0  0  0  0
  6  8  1  0  0  0  0
  6  9  1  0  0  0  0
  8 11  1  0  0  0  0
  9 14  1  0  0  0  0
 10 24  1  0  0  0  0
 10 25  1  0  0  0  0
 10 26  1  0  0  0  0
 11 12  1  0  0  0  0
 11 13  1  0  0  0  0
 11 27  1  0  0  0  0
 12 28  1  0  0  0  0
 12 29  1  0  0  0  0
 12 30  1  0  0  0  0
 13 31  1  0  0  0  0
 13 32  1  0  0  0  0
 13 33  1  0  0  0  0
 14 15  1  0  0  0  0
 14 16  1  0  0  0  0
 14 34  1  0  0  0  0
 15 35  1  0  0  0  0
 15 36  1  0  0  0  0
 15 37  1  0  0  0  0
 16 38  1  0  0  0  0
 16 39  1  0  0  0  0
 16 40  1  0  0  0  0
 17 18  1  0  0  0  0
 17 19  1  0  0  0  0
 17 41  1  0  0  0  0
 18 42  1  0  0  0  0
 18 43  1  0  0  0  0
 18 44  1  0  0  0  0
 19 45  1  0  0  0  0
 19 46  1  0  0  0  0
 19 47  1  0  0  0  0
 20 21  1  0  0  0  0
 20 22  1  0  0  0  0
 20 48  1  0  0  0  0
 21 49  1  0  0  0  0
 21 50  1  0  0  0  0
 21 51  1  0  0  0  0
 22 52  1  0  0  0  0
 22 53  1  0  0  0  0
 22 54  1  0  0  0  0
M  END
> <NMREDATA_VERSION>
1.1

> <NMREDATA_LEVEL>
0

> <NMREDATA_SOLVENT>
CDCl3

> <NMREDATA_FORMULA>
C14H32O6P2

> <NMREDATA_SMILES>
CC(P(=O)(OC(C)C)OC(C)C)P(=O)(OC(C)C)OC(C)C

> <NMREDATA_ASSIGNMENT>
P1, 22.48, 1
P6, 22.48, 6

> <NMREDATA_1D_31P>
22.48, L=P1
22.48, L=P6

$$$$
