
 OpenBabel08102311372D

 54 54  0  0  0  0  0  0  0  0999 V2000
   14.3017  -13.0774    0.0000 C   0  0  0  0  0  0  0  0  0  0  0  0
   14.2976  -14.3996    0.0000 C   0  0  0  0  0  0  0  0  0  0  0  0
   13.1501  -12.4121    0.0000 C   0  0  0  0  0  0  0  0  0  0  0  0
   13.1464  -15.0643    0.0000 C   0  0  0  0  0  0  0  0  0  0  0  0
   11.9989  -13.0768    0.0000 C   0  0  0  0  0  0  0  0  0  0  0  0
   11.9995  -14.4067    0.0000 C   0  0  0  0  0  0  0  0  0  0  0  0
   15.4449  -12.4174    0.0000 C   0  0  3  0  0  0  0  0  0  0  0  0
   16.5920  -13.0749    0.0000 O   0  0  0  0  0  0  0  0  0  0  0  0
   15.4447  -15.0571    0.0000 C   0  0  3  0  0  0  0  0  0  0  0  0
   16.5879  -14.3971    0.0000 O   0  0  0  0  0  0  0  0  0  0  0  0
   15.4451  -16.3871    0.0000 P   0  0  0  0  0  0  0  0  0  0  0  0
   14.1152  -16.3877    0.0000 O   0  0  0  0  0  0  0  0  0  0  0  0
   16.7673  -16.3912    0.0000 O   0  0  0  0  0  0  0  0  0  0  0  0
   15.4456  -17.7173    0.0000 O   0  0  0  0  0  0  0  0  0  0  0  0
   15.4446  -11.0874    0.0000 P   0  0  0  0  0  0  0  0  0  0  0  0
   14.1146  -11.0878    0.0000 O   0  0  0  0  0  0  0  0  0  0  0  0
   16.7745  -11.0868    0.0000 O   0  0  0  0  0  0  0  0  0  0  0  0
   15.4441   -9.7572    0.0000 O   0  0  0  0  0  0  0  0  0  0  0  0
   16.2151   -7.9436    0.0000 C   0  0  0  0  0  0  0  0  0  0  0  0
   17.5352   -7.7822    0.0000 C   0  0  0  0  0  0  0  0  0  0  0  0
   18.7111  -11.1137    0.0000 C   0  0  0  0  0  0  0  0  0  0  0  0
   19.3601  -12.2746    0.0000 C   0  0  0  0  0  0  0  0  0  0  0  0
   21.3347  -17.7455    0.0000 C   0  0  0  0  0  0  0  0  0  0  0  0
   21.6448  -19.0388    0.0000 C   0  0  0  0  0  0  0  0  0  0  0  0
   16.8345  -19.8043    0.0000 C   0  0  0  0  0  0  0  0  0  0  0  0
   16.2441  -20.9960    0.0000 C   0  0  0  0  0  0  0  0  0  0  0  0
   13.1502  -11.3801    0.0000 H   0  0  0  0  0  0  0  0  0  0  0  0
   13.1480  -16.0963    0.0000 H   0  0  0  0  0  0  0  0  0  0  0  0
   11.1050  -12.5610    0.0000 H   0  0  0  0  0  0  0  0  0  0  0  0
   11.1067  -14.9242    0.0000 H   0  0  0  0  0  0  0  0  0  0  0  0
   15.4466  -13.4874    0.0000 H   0  0  0  0  0  0  0  0  0  0  0  0
   16.5950  -14.0449    0.0000 H   0  0  0  0  0  0  0  0  0  0  0  0
   15.4430  -13.9871    0.0000 H   0  0  0  0  0  0  0  0  0  0  0  0
   17.4279  -14.8821    0.0000 H   0  0  0  0  0  0  0  0  0  0  0  0
   15.5716   -7.0887    0.0000 H   0  0  0  0  0  0  0  0  0  0  0  0
   16.6337   -6.9589    0.0000 H   0  0  0  0  0  0  0  0  0  0  0  0
   18.1787   -8.6371    0.0000 H   0  0  0  0  0  0  0  0  0  0  0  0
   17.9538   -6.7975    0.0000 H   0  0  0  0  0  0  0  0  0  0  0  0
   18.5973   -7.6523    0.0000 H   0  0  0  0  0  0  0  0  0  0  0  0
   19.2589  -10.1946    0.0000 H   0  0  0  0  0  0  0  0  0  0  0  0
   19.7810  -11.1285    0.0000 H   0  0  0  0  0  0  0  0  0  0  0  0
   18.8123  -13.1938    0.0000 H   0  0  0  0  0  0  0  0  0  0  0  0
   20.4300  -12.2894    0.0000 H   0  0  0  0  0  0  0  0  0  0  0  0
   19.8822  -13.2086    0.0000 H   0  0  0  0  0  0  0  0  0  0  0  0
   22.1111  -17.0092    0.0000 H   0  0  0  0  0  0  0  0  0  0  0  0
   22.3606  -18.0497    0.0000 H   0  0  0  0  0  0  0  0  0  0  0  0
   20.8684  -19.7751    0.0000 H   0  0  0  0  0  0  0  0  0  0  0  0
   22.6706  -19.3430    0.0000 H   0  0  0  0  0  0  0  0  0  0  0  0
   21.8943  -20.0793    0.0000 H   0  0  0  0  0  0  0  0  0  0  0  0
   17.9023  -19.7363    0.0000 H   0  0  0  0  0  0  0  0  0  0  0  0
   17.4273  -20.6951    0.0000 H   0  0  0  0  0  0  0  0  0  0  0  0
   15.1763  -21.0640    0.0000 H   0  0  0  0  0  0  0  0  0  0  0  0
   16.8369  -21.8868    0.0000 H   0  0  0  0  0  0  0  0  0  0  0  0
   15.7691  -21.9548    0.0000 H   0  0  0  0  0  0  0  0  0  0  0  0
  1  2  1  0  0  0  0
  1  3  2  0  0  0  0
  1  7  1  0  0  0  0
  2  4  2  0  0  0  0
  2  9  1  0  0  0  0
  3  5  1  0  0  0  0
  3 27  1  0  0  0  0
  4  6  1  0  0  0  0
  4 28  1  0  0  0  0
  5  6  2  0  0  0  0
  5 29  1  0  0  0  0
  6 30  1  0  0  0  0
  7  8  1  0  0  0  0
  7 15  1  0  0  0  0
  7 31  1  0  0  0  0
  8 32  1  0  0  0  0
  9 10  1  0  0  0  0
  9 11  1  0  0  0  0
  9 33  1  0  0  0  0
 10 34  1  0  0  0  0
 11 12  2  0  0  0  0
 11 13  1  0  0  0  0
 11 14  1  0  0  0  0
 13 23  1  0  0  0  0
 14 25  1  0  0  0  0
 15 16  2  0  0  0  0
 15 17  1  0  0  0  0
 15 18  1  0  0  0  0
 17 21  1  0  0  0  0
 18 19  1  0  0  0  0
 19 20  1  0  0  0  0
 19 35  1  0  0  0  0
 19 36  1  0  0  0  0
 20 37  1  0  0  0  0
 20 38  1  0  0  0  0
 20 39  1  0  0  0  0
 21 22  1  0  0  0  0
 21 40  1  0  0  0  0
 21 41  1  0  0  0  0
 22 42  1  0  0  0  0
 22 43  1  0  0  0  0
 22 44  1  0  0  0  0
 23 24  1  0  0  0  0
 23 45  1  0  0  0  0
 23 46  1  0  0  0  0
 24 47  1  0  0  0  0
 24 48  1  0  0  0  0
 24 49  1  0  0  0  0
 25 26  1  0  0  0  0
 25 50  1  0  0  0  0
 25 51  1  0  0  0  0
 26 52  1  0  0  0  0
 26 53  1  0  0  0  0
 26 54  1  0  0  0  0
M  END
> <NMREDATA_VERSION>
1.1

> <NMREDATA_LEVEL>
0

> <NMREDATA_SOLVENT>
CDCl3

> <NMREDATA_FORMULA>
C16H28O8P2

> <NMREDATA_SMILES>
CCOP(=O)(C(c1ccccc1C(P(=O)(OCC)OCC)O)O)OCC

> <NMREDATA_ASSIGNMENT>
P11, 22.60, 11
P15, 22.60, 15

> <NMREDATA_1D_31P>
22.60, L=P11
22.60, L=P15

$$$$
