
 OpenBabel08102311362D

 50 49  0  0  0  0  0  0  0  0999 V2000
   22.5384  -10.9259    0.0000 N   0  0  0  0  0  0  0  0  0  0  0  0
   17.9589  -15.3325    0.0000 P   0  0  0  0  0  0  0  0  0  0  0  0
   18.8402  -13.8060    0.0000 O   0  0  0  0  0  0  0  0  0  0  0  0
   17.0776  -16.8590    0.0000 O   0  0  0  0  0  0  0  0  0  0  0  0
   16.4324  -14.4512    0.0000 O   0  0  0  0  0  0  0  0  0  0  0  0
   19.4854  -17.9765    0.0000 P   0  0  0  0  0  0  0  0  0  0  0  0
   17.7227  -17.9765    0.0000 O   0  0  0  0  0  0  0  0  0  0  0  0
   21.2480  -17.9765    0.0000 O   0  0  0  0  0  0  0  0  0  0  0  0
   19.4854  -19.7391    0.0000 O   0  0  0  0  0  0  0  0  0  0  0  0
   19.4854  -16.2138    0.0000 C   0  0  0  0  0  0  0  0  0  0  0  0
   21.0119  -15.3325    0.0000 C   0  0  0  0  0  0  0  0  0  0  0  0
   21.0119  -13.5698    0.0000 C   0  0  0  0  0  0  0  0  0  0  0  0
   22.5384  -12.6885    0.0000 C   0  0  0  0  0  0  0  0  0  0  0  0
   20.6029  -13.8060    0.0000 C   0  0  0  0  0  0  0  0  0  0  0  0
   21.4842  -12.2795    0.0000 C   0  0  0  0  0  0  0  0  0  0  0  0
   16.4324  -12.6885    0.0000 C   0  0  0  0  0  0  0  0  0  0  0  0
   14.9059  -11.8072    0.0000 C   0  0  0  0  0  0  0  0  0  0  0  0
   16.8414  -19.5030    0.0000 C   0  0  0  0  0  0  0  0  0  0  0  0
   15.0788  -19.5030    0.0000 C   0  0  0  0  0  0  0  0  0  0  0  0
   21.0119  -20.6204    0.0000 C   0  0  0  0  0  0  0  0  0  0  0  0
   21.0119  -22.3831    0.0000 C   0  0  0  0  0  0  0  0  0  0  0  0
   23.4217  -10.4159    0.0000 H   0  0  0  0  0  0  0  0  0  0  0  0
   21.6551  -10.4159    0.0000 H   0  0  0  0  0  0  0  0  0  0  0  0
   19.4854  -15.1438    0.0000 H   0  0  0  0  0  0  0  0  0  0  0  0
   21.9385  -15.8675    0.0000 H   0  0  0  0  0  0  0  0  0  0  0  0
   21.9385  -14.7975    0.0000 H   0  0  0  0  0  0  0  0  0  0  0  0
   20.0853  -13.0348    0.0000 H   0  0  0  0  0  0  0  0  0  0  0  0
   21.0119  -12.4998    0.0000 H   0  0  0  0  0  0  0  0  0  0  0  0
   23.4650  -13.2235    0.0000 H   0  0  0  0  0  0  0  0  0  0  0  0
   23.4650  -12.1535    0.0000 H   0  0  0  0  0  0  0  0  0  0  0  0
   21.1379  -14.7326    0.0000 H   0  0  0  0  0  0  0  0  0  0  0  0
   21.6729  -13.8060    0.0000 H   0  0  0  0  0  0  0  0  0  0  0  0
   22.5542  -12.2795    0.0000 H   0  0  0  0  0  0  0  0  0  0  0  0
   20.9492  -11.3529    0.0000 H   0  0  0  0  0  0  0  0  0  0  0  0
   22.0192  -11.3528    0.0000 H   0  0  0  0  0  0  0  0  0  0  0  0
   17.3590  -12.1535    0.0000 H   0  0  0  0  0  0  0  0  0  0  0  0
   16.4324  -11.6185    0.0000 H   0  0  0  0  0  0  0  0  0  0  0  0
   14.9059  -10.7372    0.0000 H   0  0  0  0  0  0  0  0  0  0  0  0
   13.9793  -12.3422    0.0000 H   0  0  0  0  0  0  0  0  0  0  0  0
   13.9792  -11.2722    0.0000 H   0  0  0  0  0  0  0  0  0  0  0  0
   17.3764  -20.4296    0.0000 H   0  0  0  0  0  0  0  0  0  0  0  0
   16.3064  -20.4296    0.0000 H   0  0  0  0  0  0  0  0  0  0  0  0
   14.5438  -18.5764    0.0000 H   0  0  0  0  0  0  0  0  0  0  0  0
   14.5438  -20.4296    0.0000 H   0  0  0  0  0  0  0  0  0  0  0  0
   14.0088  -19.5030    0.0000 H   0  0  0  0  0  0  0  0  0  0  0  0
   21.9385  -20.0854    0.0000 H   0  0  0  0  0  0  0  0  0  0  0  0
   21.9385  -21.1554    0.0000 H   0  0  0  0  0  0  0  0  0  0  0  0
   20.0853  -22.9181    0.0000 H   0  0  0  0  0  0  0  0  0  0  0  0
   21.9385  -22.9181    0.0000 H   0  0  0  0  0  0  0  0  0  0  0  0
   21.0119  -23.4531    0.0000 H   0  0  0  0  0  0  0  0  0  0  0  0
  1 13  1  0  0  0  0
  1 22  1  0  0  0  0
  1 23  1  0  0  0  0
  2  3  1  0  0  0  0
  2  4  2  0  0  0  0
  2  5  1  0  0  0  0
  2 10  1  0  0  0  0
  3 14  1  0  0  0  0
  5 16  1  0  0  0  0
  6  7  1  0  0  0  0
  6  8  2  0  0  0  0
  6  9  1  0  0  0  0
  7 18  1  0  0  0  0
  9 20  1  0  0  0  0
 10  6  1  0  0  0  0
 10 11  1  0  0  0  0
 10 24  1  0  0  0  0
 11 12  1  0  0  0  0
 11 25  1  0  0  0  0
 11 26  1  0  0  0  0
 12 13  1  0  0  0  0
 12 27  1  0  0  0  0
 12 28  1  0  0  0  0
 13 29  1  0  0  0  0
 13 30  1  0  0  0  0
 14 15  1  0  0  0  0
 14 31  1  0  0  0  0
 14 32  1  0  0  0  0
 15 33  1  0  0  0  0
 15 34  1  0  0  0  0
 15 35  1  0  0  0  0
 16 17  1  0  0  0  0
 16 36  1  0  0  0  0
 16 37  1  0  0  0  0
 17 38  1  0  0  0  0
 17 39  1  0  0  0  0
 17 40  1  0  0  0  0
 18 19  1  0  0  0  0
 18 41  1  0  0  0  0
 18 42  1  0  0  0  0
 19 43  1  0  0  0  0
 19 44  1  0  0  0  0
 19 45  1  0  0  0  0
 20 21  1  0  0  0  0
 20 46  1  0  0  0  0
 20 47  1  0  0  0  0
 21 48  1  0  0  0  0
 21 49  1  0  0  0  0
 21 50  1  0  0  0  0
M  END
> <NMREDATA_VERSION>
1.1

> <NMREDATA_LEVEL>
0

> <NMREDATA_FORMULA>
C12H29NO6P2

> <NMREDATA_SMILES>
NCCCC(P(=O)(OCC)OCC)P(=O)(OCC)OCC

> <NMREDATA_ASSIGNMENT>
P2, 23.90, 2
P6, 23.90, 6

> <NMREDATA_1D_31P>
23.90, L=P2
23.90, L=P6

$$$$
