
 OpenBabel08102311372D

 51 51  0  0  0  0  0  0  0  0999 V2000
   20.4246  -11.8915    0.0000 C   0  0  0  0  0  0  0  0  0  0  0  0
   21.6049  -12.5094    0.0000 N   0  0  0  0  0  0  0  0  0  0  0  0
   22.7913  -11.9397    0.0000 C   0  0  0  0  0  0  0  0  0  0  0  0
   23.9586   -9.9722    0.0000 C   0  0  0  0  0  0  0  0  0  0  0  0
   25.1512  -10.6168    0.0000 C   0  0  0  0  0  0  0  0  0  0  0  0
   22.8823  -10.5936    0.0000 C   0  0  0  0  0  0  0  0  0  0  0  0
   25.1136  -11.9551    0.0000 C   0  0  0  0  0  0  0  0  0  0  0  0
   23.9471  -12.6012    0.0000 C   0  0  0  0  0  0  0  0  0  0  0  0
   20.2690  -10.5221    0.0000 P   0  0  0  0  0  0  0  0  0  0  0  0
   21.4769  -10.3018    0.0000 O   0  0  0  0  0  0  0  0  0  0  0  0
   20.4079   -9.1508    0.0000 O   0  0  0  0  0  0  0  0  0  0  0  0
   19.0002  -10.2596    0.0000 O   0  0  0  0  0  0  0  0  0  0  0  0
   19.3257  -12.7132    0.0000 P   0  0  0  0  0  0  0  0  0  0  0  0
   18.3702  -11.7941    0.0000 O   0  0  0  0  0  0  0  0  0  0  0  0
   18.1719  -13.4309    0.0000 O   0  0  0  0  0  0  0  0  0  0  0  0
   19.9939  -13.8816    0.0000 O   0  0  0  0  0  0  0  0  0  0  0  0
   19.3618  -15.0485    0.0000 C   0  0  0  0  0  0  0  0  0  0  0  0
   20.0359  -16.1950    0.0000 C   0  0  0  0  0  0  0  0  0  0  0  0
   16.9734  -12.8776    0.0000 C   0  0  0  0  0  0  0  0  0  0  0  0
   15.8550  -13.5871    0.0000 C   0  0  0  0  0  0  0  0  0  0  0  0
   18.1980   -9.2540    0.0000 C   0  0  0  0  0  0  0  0  0  0  0  0
   16.8509   -9.3833    0.0000 C   0  0  0  0  0  0  0  0  0  0  0  0
   21.5399   -8.4825    0.0000 C   0  0  0  0  0  0  0  0  0  0  0  0
   21.5954   -7.1543    0.0000 C   0  0  0  0  0  0  0  0  0  0  0  0
   19.4423  -11.4671    0.0000 H   0  0  0  0  0  0  0  0  0  0  0  0
   21.5879  -13.4938    0.0000 H   0  0  0  0  0  0  0  0  0  0  0  0
   23.9441   -8.9403    0.0000 H   0  0  0  0  0  0  0  0  0  0  0  0
   26.0449  -10.1008    0.0000 H   0  0  0  0  0  0  0  0  0  0  0  0
   22.0065  -10.0477    0.0000 H   0  0  0  0  0  0  0  0  0  0  0  0
   25.9953  -12.4915    0.0000 H   0  0  0  0  0  0  0  0  0  0  0  0
   23.9399  -13.6332    0.0000 H   0  0  0  0  0  0  0  0  0  0  0  0
   18.2920  -15.0673    0.0000 H   0  0  0  0  0  0  0  0  0  0  0  0
   18.8386  -15.9819    0.0000 H   0  0  0  0  0  0  0  0  0  0  0  0
   19.5083  -17.1259    0.0000 H   0  0  0  0  0  0  0  0  0  0  0  0
   21.1059  -16.1865    0.0000 H   0  0  0  0  0  0  0  0  0  0  0  0
   20.5782  -17.1174    0.0000 H   0  0  0  0  0  0  0  0  0  0  0  0
   16.9024  -11.8100    0.0000 H   0  0  0  0  0  0  0  0  0  0  0  0
   16.0192  -12.3935    0.0000 H   0  0  0  0  0  0  0  0  0  0  0  0
   14.9068  -13.0912    0.0000 H   0  0  0  0  0  0  0  0  0  0  0  0
   15.8996  -14.6562    0.0000 H   0  0  0  0  0  0  0  0  0  0  0  0
   14.9515  -14.1603    0.0000 H   0  0  0  0  0  0  0  0  0  0  0  0
   18.6155   -8.2688    0.0000 H   0  0  0  0  0  0  0  0  0  0  0  0
   17.5652   -8.3912    0.0000 H   0  0  0  0  0  0  0  0  0  0  0  0
   16.2298   -8.5120    0.0000 H   0  0  0  0  0  0  0  0  0  0  0  0
   16.4069  -10.3568    0.0000 H   0  0  0  0  0  0  0  0  0  0  0  0
   15.7858   -9.4855    0.0000 H   0  0  0  0  0  0  0  0  0  0  0  0
   22.4579   -9.0323    0.0000 H   0  0  0  0  0  0  0  0  0  0  0  0
   22.4816   -7.9745    0.0000 H   0  0  0  0  0  0  0  0  0  0  0  0
   22.5436   -6.6585    0.0000 H   0  0  0  0  0  0  0  0  0  0  0  0
   20.6919   -6.5811    0.0000 H   0  0  0  0  0  0  0  0  0  0  0  0
   21.6401   -6.0852    0.0000 H   0  0  0  0  0  0  0  0  0  0  0  0
  1  2  1  0  0  0  0
  1  9  1  0  0  0  0
  1 13  1  0  0  0  0
  1 25  1  0  0  0  0
  2  3  1  0  0  0  0
  2 26  1  0  0  0  0
  3  8  2  0  0  0  0
  4  5  1  0  0  0  0
  4  6  2  0  0  0  0
  4 27  1  0  0  0  0
  5  7  2  0  0  0  0
  5 28  1  0  0  0  0
  6  3  1  0  0  0  0
  6 29  1  0  0  0  0
  7  8  1  0  0  0  0
  7 30  1  0  0  0  0
  8 31  1  0  0  0  0
  9 10  2  0  0  0  0
  9 11  1  0  0  0  0
  9 12  1  0  0  0  0
 11 23  1  0  0  0  0
 12 21  1  0  0  0  0
 13 14  2  0  0  0  0
 13 15  1  0  0  0  0
 13 16  1  0  0  0  0
 15 19  1  0  0  0  0
 16 17  1  0  0  0  0
 17 18  1  0  0  0  0
 17 32  1  0  0  0  0
 17 33  1  0  0  0  0
 18 34  1  0  0  0  0
 18 35  1  0  0  0  0
 18 36  1  0  0  0  0
 19 20  1  0  0  0  0
 19 37  1  0  0  0  0
 19 38  1  0  0  0  0
 20 39  1  0  0  0  0
 20 40  1  0  0  0  0
 20 41  1  0  0  0  0
 21 22  1  0  0  0  0
 21 42  1  0  0  0  0
 21 43  1  0  0  0  0
 22 44  1  0  0  0  0
 22 45  1  0  0  0  0
 22 46  1  0  0  0  0
 23 24  1  0  0  0  0
 23 47  1  0  0  0  0
 23 48  1  0  0  0  0
 24 49  1  0  0  0  0
 24 50  1  0  0  0  0
 24 51  1  0  0  0  0
M  END
> <NMREDATA_VERSION>
1.1

> <NMREDATA_LEVEL>
0

> <NMREDATA_SOLVENT>
CDCl3

> <NMREDATA_FORMULA>
C15H27NO6P2

> <NMREDATA_SMILES>
CCOP(=O)(C(P(=O)(OCC)OCC)Nc1ccccc1)OCC

> <NMREDATA_ASSIGNMENT>
P9, 18.60, 9
P13, 18.60, 13

> <NMREDATA_1D_31P>
18.60, L=P9
18.60, L=P13

$$$$
