
 OpenBabel08102311372D

 59 58  0  0  0  0  0  0  0  0999 V2000
   18.3812  -21.6806    0.0000 C   0  0  0  0  0  0  0  0  0  0  0  0
   17.5396  -22.6905    0.0000 P   0  0  0  0  0  0  0  0  0  0  0  0
   18.5495  -23.5414    0.0000 O   0  0  0  0  0  0  0  0  0  0  0  0
   16.5204  -21.8309    0.0000 O   0  0  0  0  0  0  0  0  0  0  0  0
   16.6800  -23.7096    0.0000 O   0  0  0  0  0  0  0  0  0  0  0  0
   15.3772  -23.4793    0.0000 C   0  0  0  0  0  0  0  0  0  0  0  0
   14.5176  -24.4985    0.0000 C   0  0  0  0  0  0  0  0  0  0  0  0
   15.2708  -22.2917    0.0000 C   0  0  0  0  0  0  0  0  0  0  0  0
   14.2516  -21.4501    0.0000 C   0  0  0  0  0  0  0  0  0  0  0  0
   19.2319  -20.6525    0.0000 P   0  0  0  0  0  0  0  0  0  0  0  0
   20.2510  -21.5121    0.0000 O   0  0  0  0  0  0  0  0  0  0  0  0
   18.2220  -19.8016    0.0000 O   0  0  0  0  0  0  0  0  0  0  0  0
   20.0828  -19.6334    0.0000 O   0  0  0  0  0  0  0  0  0  0  0  0
   21.3943  -19.8637    0.0000 C   0  0  0  0  0  0  0  0  0  0  0  0
   22.2452  -18.8445    0.0000 C   0  0  0  0  0  0  0  0  0  0  0  0
   18.4433  -18.4901    0.0000 C   0  0  0  0  0  0  0  0  0  0  0  0
   17.4331  -17.6395    0.0000 C   0  0  0  0  0  0  0  0  0  0  0  0
   19.4004  -22.5223    0.0000 N   0  0  0  0  0  0  0  0  0  0  0  0
   19.4004  -23.8515    0.0000 C   0  0  0  0  0  0  0  0  0  0  0  0
   18.2412  -26.5681    0.0000 C   0  0  0  0  0  0  0  0  0  0  0  0
   17.3711  -20.8210    0.0000 C   0  0  0  0  0  0  0  0  0  0  0  0
   20.5524  -24.5162    0.0000 C   0  0  0  0  0  0  0  0  0  0  0  0
   20.5524  -25.8454    0.0000 C   0  0  0  0  0  0  0  0  0  0  0  0
   19.5310  -29.3329    0.0000 C   0  0  0  0  0  0  0  0  0  0  0  0
   15.0127  -22.4733    0.0000 H   0  0  0  0  0  0  0  0  0  0  0  0
   14.3238  -23.2914    0.0000 H   0  0  0  0  0  0  0  0  0  0  0  0
   13.4643  -24.3100    0.0000 H   0  0  0  0  0  0  0  0  0  0  0  0
   14.8810  -25.5049    0.0000 H   0  0  0  0  0  0  0  0  0  0  0  0
   13.8278  -25.3164    0.0000 H   0  0  0  0  0  0  0  0  0  0  0  0
   15.0914  -23.3465    0.0000 H   0  0  0  0  0  0  0  0  0  0  0  0
   14.2679  -22.6647    0.0000 H   0  0  0  0  0  0  0  0  0  0  0  0
   14.4291  -20.3949    0.0000 H   0  0  0  0  0  0  0  0  0  0  0  0
   13.2490  -21.8240    0.0000 H   0  0  0  0  0  0  0  0  0  0  0  0
   13.4265  -20.7688    0.0000 H   0  0  0  0  0  0  0  0  0  0  0  0
   21.7619  -20.8686    0.0000 H   0  0  0  0  0  0  0  0  0  0  0  0
   22.4484  -20.0474    0.0000 H   0  0  0  0  0  0  0  0  0  0  0  0
   23.2994  -19.0277    0.0000 H   0  0  0  0  0  0  0  0  0  0  0  0
   21.8767  -17.8399    0.0000 H   0  0  0  0  0  0  0  0  0  0  0  0
   22.9309  -18.0231    0.0000 H   0  0  0  0  0  0  0  0  0  0  0  0
   19.4477  -18.1213    0.0000 H   0  0  0  0  0  0  0  0  0  0  0  0
   18.6285  -17.4363    0.0000 H   0  0  0  0  0  0  0  0  0  0  0  0
   17.6207  -16.5861    0.0000 H   0  0  0  0  0  0  0  0  0  0  0  0
   16.4270  -18.0037    0.0000 H   0  0  0  0  0  0  0  0  0  0  0  0
   16.6146  -16.9503    0.0000 H   0  0  0  0  0  0  0  0  0  0  0  0
   20.3231  -22.0876    0.0000 H   0  0  0  0  0  0  0  0  0  0  0  0
   19.7391  -24.8665    0.0000 H   0  0  0  0  0  0  0  0  0  0  0  0
   17.1713  -26.5858    0.0000 H   0  0  0  0  0  0  0  0  0  0  0  0
   17.6739  -27.4753    0.0000 H   0  0  0  0  0  0  0  0  0  0  0  0
   17.5642  -19.7686    0.0000 H   0  0  0  0  0  0  0  0  0  0  0  0
   16.3631  -21.1800    0.0000 H   0  0  0  0  0  0  0  0  0  0  0  0
   16.5562  -20.1275    0.0000 H   0  0  0  0  0  0  0  0  0  0  0  0
   21.4790  -23.9811    0.0000 H   0  0  0  0  0  0  0  0  0  0  0  0
   21.4791  -25.0511    0.0000 H   0  0  0  0  0  0  0  0  0  0  0  0
   19.6258  -26.3804    0.0000 H   0  0  0  0  0  0  0  0  0  0  0  0
   21.4790  -26.3804    0.0000 H   0  0  0  0  0  0  0  0  0  0  0  0
   20.5524  -26.9154    0.0000 H   0  0  0  0  0  0  0  0  0  0  0  0
   18.9174  -30.2095    0.0000 H   0  0  0  0  0  0  0  0  0  0  0  0
   20.5969  -29.4260    0.0000 H   0  0  0  0  0  0  0  0  0  0  0  0
   19.9834  -30.3026    0.0000 H   0  0  0  0  0  0  0  0  0  0  0  0
  1  2  1  0  0  0  0
  1 10  1  0  0  0  0
  1 18  1  0  0  0  0
  1 21  1  0  0  0  0
  2  3  2  0  0  0  0
  2  4  1  0  0  0  0
  2  5  1  0  0  0  0
  4  8  1  0  0  0  0
  5  6  1  0  0  0  0
  6  7  1  0  0  0  0
  6 25  1  0  0  0  0
  6 26  1  0  0  0  0
  7 27  1  0  0  0  0
  7 28  1  0  0  0  0
  7 29  1  0  0  0  0
  8  9  1  0  0  0  0
  8 30  1  0  0  0  0
  8 31  1  0  0  0  0
  9 32  1  0  0  0  0
  9 33  1  0  0  0  0
  9 34  1  0  0  0  0
 10 11  2  0  0  0  0
 10 12  1  0  0  0  0
 10 13  1  0  0  0  0
 14 13  1  0  0  0  0
 14 35  1  0  0  0  0
 14 36  1  0  0  0  0
 15 14  1  0  0  0  0
 15 37  1  0  0  0  0
 15 38  1  0  0  0  0
 15 39  1  0  0  0  0
 16 12  1  0  0  0  0
 16 40  1  0  0  0  0
 16 41  1  0  0  0  0
 17 16  1  0  0  0  0
 17 42  1  0  0  0  0
 17 43  1  0  0  0  0
 17 44  1  0  0  0  0
 18 19  1  0  0  0  0
 18 45  1  0  0  0  0
 19 20  1  0  0  0  0
 19 22  1  0  0  0  0
 19 46  1  0  0  0  0
 20 24  1  0  0  0  0
 20 47  1  0  0  0  0
 20 48  1  0  0  0  0
 21 49  1  0  0  0  0
 21 50  1  0  0  0  0
 21 51  1  0  0  0  0
 22 23  1  0  0  0  0
 22 52  1  0  0  0  0
 22 53  1  0  0  0  0
 23 54  1  0  0  0  0
 23 55  1  0  0  0  0
 23 56  1  0  0  0  0
 24 57  1  0  0  0  0
 24 58  1  0  0  0  0
 24 59  1  0  0  0  0
M  END
> <NMREDATA_VERSION>
1.1

> <NMREDATA_LEVEL>
0

> <NMREDATA_SOLVENT>
CDCl3

> <NMREDATA_FORMULA>
C15H35NO6P2

> <NMREDATA_SMILES>
CCOP(=O)(C(P(=O)(OCC)OCC)(NC(CC)CC)C)OCC

> <NMREDATA_ASSIGNMENT>
P2, 22.48, 2
P10, 22.48, 10

> <NMREDATA_1D_31P>
22.48, L=P2
22.48, L=P10

$$$$
