
 OpenBabel08102311372D

 56 55  0  0  0  0  0  0  0  0999 V2000
   16.1666  -19.0685    0.0000 C   0  0  0  0  0  0  0  0  0  0  0  0
   15.4264  -19.9567    0.0000 P   0  0  0  0  0  0  0  0  0  0  0  0
   16.3146  -20.7051    0.0000 O   0  0  0  0  0  0  0  0  0  0  0  0
   14.5300  -19.2007    0.0000 O   0  0  0  0  0  0  0  0  0  0  0  0
   14.6703  -20.8531    0.0000 O   0  0  0  0  0  0  0  0  0  0  0  0
   13.5245  -20.6505    0.0000 C   0  0  0  0  0  0  0  0  0  0  0  0
   12.7685  -21.5469    0.0000 C   0  0  0  0  0  0  0  0  0  0  0  0
   13.4309  -19.6060    0.0000 C   0  0  0  0  0  0  0  0  0  0  0  0
   12.5346  -18.8657    0.0000 C   0  0  0  0  0  0  0  0  0  0  0  0
   16.9148  -18.1642    0.0000 P   0  0  0  0  0  0  0  0  0  0  0  0
   17.8111  -18.9203    0.0000 O   0  0  0  0  0  0  0  0  0  0  0  0
   16.0266  -17.4159    0.0000 O   0  0  0  0  0  0  0  0  0  0  0  0
   17.6632  -17.2679    0.0000 O   0  0  0  0  0  0  0  0  0  0  0  0
   18.8167  -17.4704    0.0000 C   0  0  0  0  0  0  0  0  0  0  0  0
   19.5650  -16.5741    0.0000 C   0  0  0  0  0  0  0  0  0  0  0  0
   16.2212  -16.2624    0.0000 C   0  0  0  0  0  0  0  0  0  0  0  0
   15.3328  -15.5142    0.0000 C   0  0  0  0  0  0  0  0  0  0  0  0
   17.0630  -19.8087    0.0000 N   0  0  0  0  0  0  0  0  0  0  0  0
   17.0630  -20.9778    0.0000 C   0  0  3  0  0  0  0  0  0  0  0  0
   16.0498  -21.5624    0.0000 C   0  0  0  0  0  0  0  0  0  0  0  0
   15.2782  -18.3124    0.0000 C   0  0  0  0  0  0  0  0  0  0  0  0
   18.0762  -21.5624    0.0000 C   0  0  0  0  0  0  0  0  0  0  0  0
   18.0762  -22.7315    0.0000 C   0  0  0  0  0  0  0  0  0  0  0  0
   13.1600  -19.6445    0.0000 H   0  0  0  0  0  0  0  0  0  0  0  0
   12.4711  -20.4626    0.0000 H   0  0  0  0  0  0  0  0  0  0  0  0
   11.7152  -21.3585    0.0000 H   0  0  0  0  0  0  0  0  0  0  0  0
   13.1319  -22.5533    0.0000 H   0  0  0  0  0  0  0  0  0  0  0  0
   12.0787  -22.3648    0.0000 H   0  0  0  0  0  0  0  0  0  0  0  0
   13.2514  -20.6608    0.0000 H   0  0  0  0  0  0  0  0  0  0  0  0
   12.4280  -19.9789    0.0000 H   0  0  0  0  0  0  0  0  0  0  0  0
   12.7122  -17.8105    0.0000 H   0  0  0  0  0  0  0  0  0  0  0  0
   11.5320  -19.2395    0.0000 H   0  0  0  0  0  0  0  0  0  0  0  0
   11.7096  -18.1843    0.0000 H   0  0  0  0  0  0  0  0  0  0  0  0
   19.1843  -18.4753    0.0000 H   0  0  0  0  0  0  0  0  0  0  0  0
   19.8708  -17.6540    0.0000 H   0  0  0  0  0  0  0  0  0  0  0  0
   20.6192  -16.7573    0.0000 H   0  0  0  0  0  0  0  0  0  0  0  0
   19.1965  -15.5695    0.0000 H   0  0  0  0  0  0  0  0  0  0  0  0
   20.2507  -15.7527    0.0000 H   0  0  0  0  0  0  0  0  0  0  0  0
   17.2256  -15.8936    0.0000 H   0  0  0  0  0  0  0  0  0  0  0  0
   16.4065  -15.2086    0.0000 H   0  0  0  0  0  0  0  0  0  0  0  0
   15.5205  -14.4608    0.0000 H   0  0  0  0  0  0  0  0  0  0  0  0
   14.3267  -15.8783    0.0000 H   0  0  0  0  0  0  0  0  0  0  0  0
   14.5144  -14.8249    0.0000 H   0  0  0  0  0  0  0  0  0  0  0  0
   17.9857  -19.3740    0.0000 H   0  0  0  0  0  0  0  0  0  0  0  0
   16.1364  -20.4427    0.0000 H   0  0  0  0  0  0  0  0  0  0  0  0
   15.1233  -21.0271    0.0000 H   0  0  0  0  0  0  0  0  0  0  0  0
   16.0495  -22.6324    0.0000 H   0  0  0  0  0  0  0  0  0  0  0  0
   15.1230  -22.0971    0.0000 H   0  0  0  0  0  0  0  0  0  0  0  0
   15.4714  -17.2600    0.0000 H   0  0  0  0  0  0  0  0  0  0  0  0
   14.2702  -18.6713    0.0000 H   0  0  0  0  0  0  0  0  0  0  0  0
   14.4634  -17.6189    0.0000 H   0  0  0  0  0  0  0  0  0  0  0  0
   19.0028  -21.0273    0.0000 H   0  0  0  0  0  0  0  0  0  0  0  0
   19.0029  -22.0973    0.0000 H   0  0  0  0  0  0  0  0  0  0  0  0
   17.1496  -23.2665    0.0000 H   0  0  0  0  0  0  0  0  0  0  0  0
   19.0028  -23.2665    0.0000 H   0  0  0  0  0  0  0  0  0  0  0  0
   18.0762  -23.8015    0.0000 H   0  0  0  0  0  0  0  0  0  0  0  0
  1  2  1  0  0  0  0
  1 10  1  0  0  0  0
  1 18  1  0  0  0  0
  1 21  1  0  0  0  0
  2  3  2  0  0  0  0
  2  4  1  0  0  0  0
  2  5  1  0  0  0  0
  4  8  1  0  0  0  0
  5  6  1  0  0  0  0
  6  7  1  0  0  0  0
  6 24  1  0  0  0  0
  6 25  1  0  0  0  0
  7 26  1  0  0  0  0
  7 27  1  0  0  0  0
  7 28  1  0  0  0  0
  8  9  1  0  0  0  0
  8 29  1  0  0  0  0
  8 30  1  0  0  0  0
  9 31  1  0  0  0  0
  9 32  1  0  0  0  0
  9 33  1  0  0  0  0
 10 11  2  0  0  0  0
 10 12  1  0  0  0  0
 10 13  1  0  0  0  0
 14 13  1  0  0  0  0
 14 34  1  0  0  0  0
 14 35  1  0  0  0  0
 15 14  1  0  0  0  0
 15 36  1  0  0  0  0
 15 37  1  0  0  0  0
 15 38  1  0  0  0  0
 16 12  1  0  0  0  0
 16 39  1  0  0  0  0
 16 40  1  0  0  0  0
 17 16  1  0  0  0  0
 17 41  1  0  0  0  0
 17 42  1  0  0  0  0
 17 43  1  0  0  0  0
 18 19  1  0  0  0  0
 18 44  1  0  0  0  0
 19 20  1  0  0  0  0
 19 22  1  0  0  0  0
 19 45  1  0  0  0  0
 20 46  1  0  0  0  0
 20 47  1  0  0  0  0
 20 48  1  0  0  0  0
 21 49  1  0  0  0  0
 21 50  1  0  0  0  0
 21 51  1  0  0  0  0
 22 23  1  0  0  0  0
 22 52  1  0  0  0  0
 22 53  1  0  0  0  0
 23 54  1  0  0  0  0
 23 55  1  0  0  0  0
 23 56  1  0  0  0  0
M  END
> <NMREDATA_VERSION>
1.1

> <NMREDATA_LEVEL>
0

> <NMREDATA_SOLVENT>
CDCl3

> <NMREDATA_FORMULA>
C14H33NO6P2

> <NMREDATA_SMILES>
CCOP(=O)(C(P(=O)(OCC)OCC)(NC(CC)C)C)OCC

> <NMREDATA_ASSIGNMENT>
P2, 23.30, 2
P10, 23.30, 10

> <NMREDATA_1D_31P>
23.30, L=P2
23.30, L=P10

$$$$
