
 OpenBabel08102311362D

 52 51  0  0  0  0  0  0  0  0999 V2000
   16.2362  -10.5047    0.0000 P   0  0  0  0  0  0  0  0  0  0  0  0
   15.2828   -8.8533    0.0000 O   0  0  0  0  0  0  0  0  0  0  0  0
   17.8876   -9.5513    0.0000 O   0  0  0  0  0  0  0  0  0  0  0  0
   14.5849  -11.4581    0.0000 O   0  0  0  0  0  0  0  0  0  0  0  0
   15.2828  -15.4589    0.0000 O   0  0  0  0  0  0  0  0  0  0  0  0
   17.8876  -14.7609    0.0000 O   0  0  0  0  0  0  0  0  0  0  0  0
   14.5849  -12.8540    0.0000 O   0  0  0  0  0  0  0  0  0  0  0  0
   16.2362  -13.8075    0.0000 P   0  0  0  0  0  0  0  0  0  0  0  0
   17.1897  -12.1561    0.0000 C   0  0  0  0  0  0  0  0  0  0  0  0
   19.0966  -12.1561    0.0000 C   0  0  0  0  0  0  0  0  0  0  0  0
   20.0500  -13.8075    0.0000 C   0  0  0  0  0  0  0  0  0  0  0  0
   21.9569  -13.8075    0.0000 O   0  0  0  0  0  0  0  0  0  0  0  0
   22.9103  -15.4589    0.0000 S   0  0  0  0  0  0  0  0  0  0  0  0
   19.5390  -10.5047    0.0000 C   0  0  0  0  0  0  0  0  0  0  0  0
   21.1904   -9.5512    0.0000 C   0  0  0  0  0  0  0  0  0  0  0  0
   14.5849  -13.3650    0.0000 C   0  0  0  0  0  0  0  0  0  0  0  0
   12.9335  -14.3184    0.0000 C   0  0  0  0  0  0  0  0  0  0  0  0
   16.2363  -17.1103    0.0000 C   0  0  0  0  0  0  0  0  0  0  0  0
   15.2828  -18.7617    0.0000 C   0  0  0  0  0  0  0  0  0  0  0  0
   19.5390  -13.8075    0.0000 C   0  0  0  0  0  0  0  0  0  0  0  0
   21.1904  -14.7609    0.0000 C   0  0  0  0  0  0  0  0  0  0  0  0
   23.8637  -17.1103    0.0000 O   0  0  0  0  0  0  0  0  0  0  0  0
   21.2589  -16.4123    0.0000 O   0  0  0  0  0  0  0  0  0  0  0  0
   24.5617  -14.5054    0.0000 C   0  0  0  0  0  0  0  0  0  0  0  0
   17.7247  -11.2294    0.0000 H   0  0  0  0  0  0  0  0  0  0  0  0
   19.6316  -11.2295    0.0000 H   0  0  0  0  0  0  0  0  0  0  0  0
   20.1666  -12.1561    0.0000 H   0  0  0  0  0  0  0  0  0  0  0  0
   19.5150  -14.7341    0.0000 H   0  0  0  0  0  0  0  0  0  0  0  0
   20.5850  -14.7341    0.0000 H   0  0  0  0  0  0  0  0  0  0  0  0
   19.5390  -11.5747    0.0000 H   0  0  0  0  0  0  0  0  0  0  0  0
   20.4657  -11.0397    0.0000 H   0  0  0  0  0  0  0  0  0  0  0  0
   22.1171  -10.0862    0.0000 H   0  0  0  0  0  0  0  0  0  0  0  0
   21.1904   -8.4812    0.0000 H   0  0  0  0  0  0  0  0  0  0  0  0
   22.1170   -9.0162    0.0000 H   0  0  0  0  0  0  0  0  0  0  0  0
   15.5115  -13.9000    0.0000 H   0  0  0  0  0  0  0  0  0  0  0  0
   14.5849  -14.4350    0.0000 H   0  0  0  0  0  0  0  0  0  0  0  0
   12.0069  -13.7834    0.0000 H   0  0  0  0  0  0  0  0  0  0  0  0
   12.9335  -15.3884    0.0000 H   0  0  0  0  0  0  0  0  0  0  0  0
   12.0068  -14.8534    0.0000 H   0  0  0  0  0  0  0  0  0  0  0  0
   17.3063  -17.1103    0.0000 H   0  0  0  0  0  0  0  0  0  0  0  0
   16.7713  -18.0370    0.0000 H   0  0  0  0  0  0  0  0  0  0  0  0
   14.2128  -18.7617    0.0000 H   0  0  0  0  0  0  0  0  0  0  0  0
   15.8178  -19.6884    0.0000 H   0  0  0  0  0  0  0  0  0  0  0  0
   14.7478  -19.6883    0.0000 H   0  0  0  0  0  0  0  0  0  0  0  0
   19.5390  -12.7375    0.0000 H   0  0  0  0  0  0  0  0  0  0  0  0
   20.4656  -13.2725    0.0000 H   0  0  0  0  0  0  0  0  0  0  0  0
   21.1904  -15.8309    0.0000 H   0  0  0  0  0  0  0  0  0  0  0  0
   22.1170  -14.2259    0.0000 H   0  0  0  0  0  0  0  0  0  0  0  0
   22.1171  -15.2959    0.0000 H   0  0  0  0  0  0  0  0  0  0  0  0
   25.4884  -15.0404    0.0000 H   0  0  0  0  0  0  0  0  0  0  0  0
   24.5617  -13.4354    0.0000 H   0  0  0  0  0  0  0  0  0  0  0  0
   25.4883  -13.9704    0.0000 H   0  0  0  0  0  0  0  0  0  0  0  0
  1  2  2  0  0  0  0
  1  3  1  0  0  0  0
  1  4  1  0  0  0  0
  1  9  1  0  0  0  0
  3 14  1  0  0  0  0
  4 16  1  0  0  0  0
  5  8  1  0  0  0  0
  5 18  1  0  0  0  0
  6  8  1  0  0  0  0
  6 20  1  0  0  0  0
  7  8  2  0  0  0  0
  8  9  1  0  0  0  0
  9 10  1  0  0  0  0
  9 25  1  0  0  0  0
 10 11  1  0  0  0  0
 10 26  1  0  0  0  0
 10 27  1  0  0  0  0
 11 12  1  0  0  0  0
 11 28  1  0  0  0  0
 11 29  1  0  0  0  0
 12 13  1  0  0  0  0
 13 22  2  0  0  0  0
 13 23  2  0  0  0  0
 13 24  1  0  0  0  0
 14 15  1  0  0  0  0
 14 30  1  0  0  0  0
 14 31  1  0  0  0  0
 15 32  1  0  0  0  0
 15 33  1  0  0  0  0
 15 34  1  0  0  0  0
 16 17  1  0  0  0  0
 16 35  1  0  0  0  0
 16 36  1  0  0  0  0
 17 37  1  0  0  0  0
 17 38  1  0  0  0  0
 17 39  1  0  0  0  0
 18 19  1  0  0  0  0
 18 40  1  0  0  0  0
 18 41  1  0  0  0  0
 19 42  1  0  0  0  0
 19 43  1  0  0  0  0
 19 44  1  0  0  0  0
 20 21  1  0  0  0  0
 20 45  1  0  0  0  0
 20 46  1  0  0  0  0
 21 47  1  0  0  0  0
 21 48  1  0  0  0  0
 21 49  1  0  0  0  0
 24 50  1  0  0  0  0
 24 51  1  0  0  0  0
 24 52  1  0  0  0  0
M  END
> <NMREDATA_VERSION>
1.1

> <NMREDATA_LEVEL>
0

> <NMREDATA_FORMULA>
C12H28O9P2S

> <NMREDATA_SMILES>
CCOP(=O)(C(P(=O)(OCC)OCC)CCOS(=O)(=O)C)OCC

> <NMREDATA_ASSIGNMENT>
P1, 22.80, 1
P8, 22.80, 8

> <NMREDATA_1D_31P>
22.80, L=P1
22.80, L=P8

$$$$
