
 OpenBabel08102311372D

 55 55  0  0  0  0  0  0  0  0999 V2000
   15.0836  -22.2916    0.0000 P   0  0  0  0  0  0  0  0  0  0  0  0
   15.7486  -23.4434    0.0000 O   0  0  0  0  0  0  0  0  0  0  0  0
   13.9318  -22.9566    0.0000 O   0  0  0  0  0  0  0  0  0  0  0  0
   12.7800  -22.2916    0.0000 C   0  0  0  0  0  0  0  0  0  0  0  0
   11.6282  -22.9566    0.0000 C   0  0  0  0  0  0  0  0  0  0  0  0
   17.0786  -23.4434    0.0000 C   0  0  0  0  0  0  0  0  0  0  0  0
   17.7436  -24.5952    0.0000 C   0  0  0  0  0  0  0  0  0  0  0  0
   14.4186  -21.1398    0.0000 O   0  0  0  0  0  0  0  0  0  0  0  0
   19.6909  -22.2916    0.0000 C   0  0  0  0  0  0  0  0  0  0  0  0
   19.6909  -23.6216    0.0000 O   0  0  0  0  0  0  0  0  0  0  0  0
   18.5391  -21.6266    0.0000 C   0  0  0  0  0  0  0  0  0  0  0  0
   18.5391  -24.2866    0.0000 C   0  0  0  0  0  0  0  0  0  0  0  0
   17.3873  -22.2916    0.0000 N   0  0  0  0  0  0  0  0  0  0  0  0
   17.3873  -23.6216    0.0000 C   0  0  0  0  0  0  0  0  0  0  0  0
   16.2355  -21.6266    0.0000 C   0  0  0  0  0  0  0  0  0  0  0  0
   16.2355  -20.2966    0.0000 P   0  0  0  0  0  0  0  0  0  0  0  0
   14.9055  -20.2966    0.0000 O   0  0  0  0  0  0  0  0  0  0  0  0
   16.2355  -18.9666    0.0000 O   0  0  0  0  0  0  0  0  0  0  0  0
   15.0836  -18.3016    0.0000 C   0  0  0  0  0  0  0  0  0  0  0  0
   15.0836  -16.9716    0.0000 C   0  0  0  0  0  0  0  0  0  0  0  0
   14.2405  -19.1448    0.0000 C   0  0  0  0  0  0  0  0  0  0  0  0
   12.9105  -19.1448    0.0000 C   0  0  0  0  0  0  0  0  0  0  0  0
   17.5655  -20.2966    0.0000 O   0  0  0  0  0  0  0  0  0  0  0  0
   20.0775  -20.5330    0.0000 C   0  0  0  0  0  0  0  0  0  0  0  0
   12.7800  -21.2216    0.0000 H   0  0  0  0  0  0  0  0  0  0  0  0
   11.8534  -21.7566    0.0000 H   0  0  0  0  0  0  0  0  0  0  0  0
   10.7016  -22.4216    0.0000 H   0  0  0  0  0  0  0  0  0  0  0  0
   11.6282  -24.0266    0.0000 H   0  0  0  0  0  0  0  0  0  0  0  0
   10.7016  -23.4916    0.0000 H   0  0  0  0  0  0  0  0  0  0  0  0
   17.6136  -22.5168    0.0000 H   0  0  0  0  0  0  0  0  0  0  0  0
   18.1486  -23.4434    0.0000 H   0  0  0  0  0  0  0  0  0  0  0  0
   17.2086  -25.5218    0.0000 H   0  0  0  0  0  0  0  0  0  0  0  0
   18.8136  -24.5952    0.0000 H   0  0  0  0  0  0  0  0  0  0  0  0
   18.2786  -25.5218    0.0000 H   0  0  0  0  0  0  0  0  0  0  0  0
   20.6175  -21.7566    0.0000 H   0  0  0  0  0  0  0  0  0  0  0  0
   19.6909  -21.2216    0.0000 H   0  0  0  0  0  0  0  0  0  0  0  0
   18.5391  -20.5566    0.0000 H   0  0  0  0  0  0  0  0  0  0  0  0
   17.6125  -21.0916    0.0000 H   0  0  0  0  0  0  0  0  0  0  0  0
   18.5391  -25.3566    0.0000 H   0  0  0  0  0  0  0  0  0  0  0  0
   17.6125  -24.8216    0.0000 H   0  0  0  0  0  0  0  0  0  0  0  0
   16.4607  -24.1566    0.0000 H   0  0  0  0  0  0  0  0  0  0  0  0
   16.4607  -23.0866    0.0000 H   0  0  0  0  0  0  0  0  0  0  0  0
   14.1570  -18.8366    0.0000 H   0  0  0  0  0  0  0  0  0  0  0  0
   14.1569  -17.7666    0.0000 H   0  0  0  0  0  0  0  0  0  0  0  0
   16.0102  -16.4366    0.0000 H   0  0  0  0  0  0  0  0  0  0  0  0
   14.1570  -16.4366    0.0000 H   0  0  0  0  0  0  0  0  0  0  0  0
   15.0836  -15.9016    0.0000 H   0  0  0  0  0  0  0  0  0  0  0  0
   14.7755  -18.2182    0.0000 H   0  0  0  0  0  0  0  0  0  0  0  0
   13.7055  -18.2182    0.0000 H   0  0  0  0  0  0  0  0  0  0  0  0
   12.3755  -18.2182    0.0000 H   0  0  0  0  0  0  0  0  0  0  0  0
   12.3755  -20.0714    0.0000 H   0  0  0  0  0  0  0  0  0  0  0  0
   11.8405  -19.1448    0.0000 H   0  0  0  0  0  0  0  0  0  0  0  0
   20.8457  -21.2778    0.0000 H   0  0  0  0  0  0  0  0  0  0  0  0
   20.3384  -19.4953    0.0000 H   0  0  0  0  0  0  0  0  0  0  0  0
   21.1066  -20.2401    0.0000 H   0  0  0  0  0  0  0  0  0  0  0  0
  1  2  1  0  0  0  0
  1  3  1  0  0  0  0
  1  8  2  0  0  0  0
  1 15  1  0  0  0  0
  2  6  1  0  0  0  0
  3  4  1  0  0  0  0
  4  5  1  0  0  0  0
  4 25  1  0  0  0  0
  4 26  1  0  0  0  0
  5 27  1  0  0  0  0
  5 28  1  0  0  0  0
  5 29  1  0  0  0  0
  6  7  1  0  0  0  0
  6 30  1  0  0  0  0
  6 31  1  0  0  0  0
  7 32  1  0  0  0  0
  7 33  1  0  0  0  0
  7 34  1  0  0  0  0
  9 10  1  0  0  0  0
  9 11  1  0  0  0  0
  9 35  1  0  0  0  0
  9 36  1  0  0  0  0
 10 12  1  0  0  0  0
 11 13  1  0  0  0  0
 11 37  1  0  0  0  0
 11 38  1  0  0  0  0
 12 14  1  0  0  0  0
 12 39  1  0  0  0  0
 12 40  1  0  0  0  0
 13 14  1  0  0  0  0
 13 15  1  0  0  0  0
 14 41  1  0  0  0  0
 14 42  1  0  0  0  0
 15 16  1  0  0  0  0
 15 24  1  0  0  0  0
 16 17  1  0  0  0  0
 16 18  1  0  0  0  0
 16 23  2  0  0  0  0
 17 21  1  0  0  0  0
 18 19  1  0  0  0  0
 19 20  1  0  0  0  0
 19 43  1  0  0  0  0
 19 44  1  0  0  0  0
 20 45  1  0  0  0  0
 20 46  1  0  0  0  0
 20 47  1  0  0  0  0
 21 22  1  0  0  0  0
 21 48  1  0  0  0  0
 21 49  1  0  0  0  0
 22 50  1  0  0  0  0
 22 51  1  0  0  0  0
 22 52  1  0  0  0  0
 24 53  1  0  0  0  0
 24 54  1  0  0  0  0
 24 55  1  0  0  0  0
M  END
> <NMREDATA_VERSION>
1.1

> <NMREDATA_LEVEL>
0

> <NMREDATA_SOLVENT>
CDCl3

> <NMREDATA_FORMULA>
C14H31NO7P2

> <NMREDATA_SMILES>
CCOP(=O)(C(P(=O)(OCC)OCC)(N1CCOCC1)C)OCC

> <NMREDATA_ASSIGNMENT>
P1, 22.21, 1
P16, 22.21, 16

> <NMREDATA_1D_31P>
22.21, L=P1
22.21, L=P16

$$$$
