
 OpenBabel08102311372D

 54 53  0  0  0  0  0  0  0  0999 V2000
   21.4269  -22.9521    0.0000 C   0  0  0  0  0  0  0  0  0  0  0  0
   19.4319  -24.1039    0.0000 C   0  0  0  0  0  0  0  0  0  0  0  0
   20.7619  -24.1039    0.0000 C   0  0  0  0  0  0  0  0  0  0  0  0
   18.7669  -25.2557    0.0000 C   0  0  0  0  0  0  0  0  0  0  0  0
   17.4369  -25.2557    0.0000 C   0  0  0  0  0  0  0  0  0  0  0  0
   16.7719  -26.4075    0.0000 P   0  0  3  0  0  0  0  0  0  0  0  0
   16.1069  -27.5593    0.0000 O   0  0  0  0  0  0  0  0  0  0  0  0
   15.6201  -25.7425    0.0000 O   0  0  0  0  0  0  0  0  0  0  0  0
   17.9237  -27.0725    0.0000 O   0  0  0  0  0  0  0  0  0  0  0  0
   19.0755  -26.4075    0.0000 C   0  0  0  0  0  0  0  0  0  0  0  0
   20.2273  -27.0725    0.0000 C   0  0  0  0  0  0  0  0  0  0  0  0
   22.7569  -22.9521    0.0000 C   0  0  0  0  0  0  0  0  0  0  0  0
   23.4219  -21.8003    0.0000 C   0  0  0  0  0  0  0  0  0  0  0  0
   24.7519  -21.8003    0.0000 C   0  0  0  0  0  0  0  0  0  0  0  0
   25.4169  -20.6484    0.0000 C   0  0  0  0  0  0  0  0  0  0  0  0
   26.7469  -20.6484    0.0000 C   0  0  0  0  0  0  0  0  0  0  0  0
   27.4119  -19.4966    0.0000 P   0  0  3  0  0  0  0  0  0  0  0  0
   26.2601  -18.8316    0.0000 O   0  0  0  0  0  0  0  0  0  0  0  0
   28.5637  -20.1616    0.0000 O   0  0  0  0  0  0  0  0  0  0  0  0
   28.0769  -18.3448    0.0000 O   0  0  0  0  0  0  0  0  0  0  0  0
   29.7155  -19.4966    0.0000 C   0  0  0  0  0  0  0  0  0  0  0  0
   30.8673  -20.1616    0.0000 C   0  0  0  0  0  0  0  0  0  0  0  0
   20.8919  -22.0255    0.0000 H   0  0  0  0  0  0  0  0  0  0  0  0
   21.9619  -22.0255    0.0000 H   0  0  0  0  0  0  0  0  0  0  0  0
   18.8969  -23.1773    0.0000 H   0  0  0  0  0  0  0  0  0  0  0  0
   18.3619  -24.1039    0.0000 H   0  0  0  0  0  0  0  0  0  0  0  0
   21.2969  -25.0305    0.0000 H   0  0  0  0  0  0  0  0  0  0  0  0
   21.8319  -24.1039    0.0000 H   0  0  0  0  0  0  0  0  0  0  0  0
   19.3019  -26.1823    0.0000 H   0  0  0  0  0  0  0  0  0  0  0  0
   18.2319  -26.1823    0.0000 H   0  0  0  0  0  0  0  0  0  0  0  0
   16.9019  -24.3291    0.0000 H   0  0  0  0  0  0  0  0  0  0  0  0
   16.3669  -25.2557    0.0000 H   0  0  0  0  0  0  0  0  0  0  0  0
   15.6201  -24.7725    0.0000 H   0  0  0  0  0  0  0  0  0  0  0  0
   19.0755  -25.3375    0.0000 H   0  0  0  0  0  0  0  0  0  0  0  0
   20.0021  -25.8725    0.0000 H   0  0  0  0  0  0  0  0  0  0  0  0
   20.2273  -28.1425    0.0000 H   0  0  0  0  0  0  0  0  0  0  0  0
   21.1539  -26.5375    0.0000 H   0  0  0  0  0  0  0  0  0  0  0  0
   21.1539  -27.6075    0.0000 H   0  0  0  0  0  0  0  0  0  0  0  0
   23.2919  -23.8787    0.0000 H   0  0  0  0  0  0  0  0  0  0  0  0
   23.8269  -22.9521    0.0000 H   0  0  0  0  0  0  0  0  0  0  0  0
   22.8869  -20.8737    0.0000 H   0  0  0  0  0  0  0  0  0  0  0  0
   23.9569  -20.8737    0.0000 H   0  0  0  0  0  0  0  0  0  0  0  0
   25.2869  -22.7269    0.0000 H   0  0  0  0  0  0  0  0  0  0  0  0
   25.8219  -21.8003    0.0000 H   0  0  0  0  0  0  0  0  0  0  0  0
   24.8819  -19.7218    0.0000 H   0  0  0  0  0  0  0  0  0  0  0  0
   25.9519  -19.7217    0.0000 H   0  0  0  0  0  0  0  0  0  0  0  0
   27.2819  -21.5750    0.0000 H   0  0  0  0  0  0  0  0  0  0  0  0
   27.8169  -20.6484    0.0000 H   0  0  0  0  0  0  0  0  0  0  0  0
   29.0469  -18.3448    0.0000 H   0  0  0  0  0  0  0  0  0  0  0  0
   29.7155  -18.4266    0.0000 H   0  0  0  0  0  0  0  0  0  0  0  0
   30.6421  -18.9616    0.0000 H   0  0  0  0  0  0  0  0  0  0  0  0
   30.8673  -21.2316    0.0000 H   0  0  0  0  0  0  0  0  0  0  0  0
   31.7939  -19.6266    0.0000 H   0  0  0  0  0  0  0  0  0  0  0  0
   31.7939  -20.6966    0.0000 H   0  0  0  0  0  0  0  0  0  0  0  0
  1  3  1  0  0  0  0
  1 12  1  0  0  0  0
  1 23  1  0  0  0  0
  1 24  1  0  0  0  0
  2  4  1  0  0  0  0
  2 25  1  0  0  0  0
  2 26  1  0  0  0  0
  3  2  1  0  0  0  0
  3 27  1  0  0  0  0
  3 28  1  0  0  0  0
  4  5  1  0  0  0  0
  4 29  1  0  0  0  0
  4 30  1  0  0  0  0
  5  6  1  0  0  0  0
  5 31  1  0  0  0  0
  5 32  1  0  0  0  0
  6  7  2  0  0  0  0
  6  8  1  0  0  0  0
  6  9  1  0  0  0  0
  8 33  1  0  0  0  0
  9 10  1  0  0  0  0
 10 11  1  0  0  0  0
 10 34  1  0  0  0  0
 10 35  1  0  0  0  0
 11 36  1  0  0  0  0
 11 37  1  0  0  0  0
 11 38  1  0  0  0  0
 12 13  1  0  0  0  0
 12 39  1  0  0  0  0
 12 40  1  0  0  0  0
 13 14  1  0  0  0  0
 13 41  1  0  0  0  0
 13 42  1  0  0  0  0
 14 15  1  0  0  0  0
 14 43  1  0  0  0  0
 14 44  1  0  0  0  0
 15 16  1  0  0  0  0
 15 45  1  0  0  0  0
 15 46  1  0  0  0  0
 16 17  1  0  0  0  0
 16 47  1  0  0  0  0
 16 48  1  0  0  0  0
 17 18  2  0  0  0  0
 17 19  1  0  0  0  0
 17 20  1  0  0  0  0
 19 21  1  0  0  0  0
 20 49  1  0  0  0  0
 21 22  1  0  0  0  0
 21 50  1  0  0  0  0
 21 51  1  0  0  0  0
 22 52  1  0  0  0  0
 22 53  1  0  0  0  0
 22 54  1  0  0  0  0
M  END
> <NMREDATA_VERSION>
1.1

> <NMREDATA_LEVEL>
0

> <NMREDATA_SOLVENT>
CD3OD

> <NMREDATA_FORMULA>
C14H32O6P2

> <NMREDATA_SMILES>
CCOP(=O)(CCCCCCCCCCP(=O)(OCC)O)O

> <NMREDATA_ASSIGNMENT>
P6, 35.60, 6
P17, 35.60, 17

> <NMREDATA_1D_31P>
35.60, L=P6
35.60, L=P17

$$$$
