
 OpenBabel08102311352D

 26 25  0  0  0  0  0  0  0  0999 V2000
    6.7622  -18.3796    0.0000 O   0  0  0  0  0  0  0  0  0  0  0  0
    6.7622  -16.0241    0.0000 O   0  0  0  0  0  0  0  0  0  0  0  0
    8.7652  -14.0692    0.0000 O   0  0  0  0  0  0  0  0  0  0  0  0
    8.2684   -9.0696    0.0000 O   0  0  0  0  0  0  0  0  0  0  0  0
    5.4642  -11.9219    0.0000 O   0  0  0  0  0  0  0  0  0  0  0  0
    4.9034   -9.6145    0.0000 O   0  0  0  0  0  0  0  0  0  0  0  0
    9.0696  -16.1683    0.0000 P   0  0  0  0  0  0  0  0  0  0  0  0
    7.8678  -11.1207    0.0000 P   0  0  0  0  0  0  0  0  0  0  0  0
   10.4157  -11.1688    0.0000 C   0  0  0  0  0  0  0  0  0  0  0  0
   11.0727  -15.8799    0.0000 C   0  0  0  0  0  0  0  0  0  0  0  0
   22.0812   -9.9189    0.0000 C   0  0  0  0  0  0  0  0  0  0  0  0
   17.0336  -11.3611    0.0000 C   0  0  0  0  0  0  0  0  0  0  0  0
   14.4698  -13.1237    0.0000 N   0  0  0  0  0  0  0  0  0  0  0  0
    5.8308  -18.1087    0.0000 H   0  0  0  0  0  0  0  0  0  0  0  0
    6.3305  -15.1554    0.0000 H   0  0  0  0  0  0  0  0  0  0  0  0
    4.7384  -11.2783    0.0000 H   0  0  0  0  0  0  0  0  0  0  0  0
    4.8515   -8.6459    0.0000 H   0  0  0  0  0  0  0  0  0  0  0  0
   10.6639  -10.1280    0.0000 H   0  0  0  0  0  0  0  0  0  0  0  0
    9.7606  -10.3228    0.0000 H   0  0  0  0  0  0  0  0  0  0  0  0
   11.5015  -16.8602    0.0000 H   0  0  0  0  0  0  0  0  0  0  0  0
   10.5525  -16.8149    0.0000 H   0  0  0  0  0  0  0  0  0  0  0  0
   22.8502  -10.6629    0.0000 H   0  0  0  0  0  0  0  0  0  0  0  0
   22.3410   -8.8809    0.0000 H   0  0  0  0  0  0  0  0  0  0  0  0
   23.1100   -9.6249    0.0000 H   0  0  0  0  0  0  0  0  0  0  0  0
   16.5776  -10.3931    0.0000 H   0  0  0  0  0  0  0  0  0  0  0  0
   17.4759  -10.3868    0.0000 H   0  0  0  0  0  0  0  0  0  0  0  0
  1  7  1  0  0  0  0
  1 14  1  0  0  0  0
  2  7  1  0  0  0  0
  2 15  1  0  0  0  0
  3  7  2  0  0  0  0
  4  8  2  0  0  0  0
  5  8  1  0  0  0  0
  5 16  1  0  0  0  0
  6  8  1  0  0  0  0
  6 17  1  0  0  0  0
  7 10  1  0  0  0  0
  8  9  1  0  0  0  0
  9 13  1  0  0  0  0
  9 18  1  0  0  0  0
  9 19  1  0  0  0  0
 10 13  1  0  0  0  0
 10 20  1  0  0  0  0
 10 21  1  0  0  0  0
 11 12  1  0  0  0  0
 11 22  1  0  0  0  0
 11 23  1  0  0  0  0
 11 24  1  0  0  0  0
 12 13  1  0  0  0  0
 12 25  1  0  0  0  0
 12 26  1  0  0  0  0
M  END
> <NMREDATA_VERSION>
1.1

> <NMREDATA_LEVEL>
0

> <NMREDATA_SOLVENT>
CDCl3

> <NMREDATA_FORMULA>
C4H13NO6P2

> <NMREDATA_SMILES>
CCN(CP(=O)(O)O)CP(=O)(O)O

> <NMREDATA_ASSIGNMENT>
P7, 5.95, 7
P8, 5.95, 8

> <NMREDATA_1D_31P>
5.95, L=P7
5.95, L=P8

$$$$
