
 OpenBabel08102311362D

 47 46  0  0  0  0  0  0  0  0999 V2000
   15.2713  -11.1772    0.0000 C   0  0  0  0  0  0  0  0  0  0  0  0
   12.5453   -9.6033    0.0000 P   0  0  0  0  0  0  0  0  0  0  0  0
    9.8194   -8.0295    0.0000 O   0  0  0  0  0  0  0  0  0  0  0  0
   14.1192   -6.8774    0.0000 O   0  0  0  0  0  0  0  0  0  0  0  0
   10.9715  -12.3293    0.0000 O   0  0  0  0  0  0  0  0  0  0  0  0
   12.5453   -4.1514    0.0000 C   0  0  0  0  0  0  0  0  0  0  0  0
   14.1192   -1.4255    0.0000 C   0  0  0  0  0  0  0  0  0  0  0  0
    7.8238  -12.3293    0.0000 C   0  0  0  0  0  0  0  0  0  0  0  0
    6.2500  -15.0552    0.0000 C   0  0  0  0  0  0  0  0  0  0  0  0
   15.2713  -14.3248    0.0000 P   0  0  0  0  0  0  0  0  0  0  0  0
   12.1236  -14.3248    0.0000 O   0  0  0  0  0  0  0  0  0  0  0  0
   18.4189  -14.3248    0.0000 O   0  0  0  0  0  0  0  0  0  0  0  0
   15.2713  -17.4725    0.0000 O   0  0  0  0  0  0  0  0  0  0  0  0
   19.9928  -11.5989    0.0000 C   0  0  0  0  0  0  0  0  0  0  0  0
   23.1404  -11.5989    0.0000 C   0  0  0  0  0  0  0  0  0  0  0  0
   12.5453  -19.0463    0.0000 C   0  0  0  0  0  0  0  0  0  0  0  0
   12.5453  -22.1940    0.0000 C   0  0  0  0  0  0  0  0  0  0  0  0
   17.9972   -9.6033    0.0000 N   0  0  0  0  0  0  0  0  0  0  0  0
   20.7232  -11.1772    0.0000 C   0  0  0  0  0  0  0  0  0  0  0  0
   17.9972   -6.4557    0.0000 C   0  0  0  0  0  0  0  0  0  0  0  0
   16.1980  -11.7122    0.0000 H   0  0  0  0  0  0  0  0  0  0  0  0
   11.4753   -4.1514    0.0000 H   0  0  0  0  0  0  0  0  0  0  0  0
   12.0103   -3.2247    0.0000 H   0  0  0  0  0  0  0  0  0  0  0  0
   15.1892   -1.4255    0.0000 H   0  0  0  0  0  0  0  0  0  0  0  0
   13.5842   -0.4988    0.0000 H   0  0  0  0  0  0  0  0  0  0  0  0
   14.6542   -0.4989    0.0000 H   0  0  0  0  0  0  0  0  0  0  0  0
    7.2888  -11.4027    0.0000 H   0  0  0  0  0  0  0  0  0  0  0  0
    6.7538  -12.3293    0.0000 H   0  0  0  0  0  0  0  0  0  0  0  0
    5.1800  -15.0552    0.0000 H   0  0  0  0  0  0  0  0  0  0  0  0
    6.7850  -15.9818    0.0000 H   0  0  0  0  0  0  0  0  0  0  0  0
    5.7150  -15.9818    0.0000 H   0  0  0  0  0  0  0  0  0  0  0  0
   19.4578  -10.6722    0.0000 H   0  0  0  0  0  0  0  0  0  0  0  0
   20.5278  -10.6723    0.0000 H   0  0  0  0  0  0  0  0  0  0  0  0
   23.6754  -12.5255    0.0000 H   0  0  0  0  0  0  0  0  0  0  0  0
   23.6754  -10.6723    0.0000 H   0  0  0  0  0  0  0  0  0  0  0  0
   24.2104  -11.5989    0.0000 H   0  0  0  0  0  0  0  0  0  0  0  0
   11.6187  -18.5113    0.0000 H   0  0  0  0  0  0  0  0  0  0  0  0
   11.6187  -19.5813    0.0000 H   0  0  0  0  0  0  0  0  0  0  0  0
   11.6187  -22.7290    0.0000 H   0  0  0  0  0  0  0  0  0  0  0  0
   13.4719  -22.7290    0.0000 H   0  0  0  0  0  0  0  0  0  0  0  0
   12.5453  -23.2640    0.0000 H   0  0  0  0  0  0  0  0  0  0  0  0
   20.7232  -12.2472    0.0000 H   0  0  0  0  0  0  0  0  0  0  0  0
   21.6499  -10.6422    0.0000 H   0  0  0  0  0  0  0  0  0  0  0  0
   21.6498  -11.7122    0.0000 H   0  0  0  0  0  0  0  0  0  0  0  0
   18.9238   -5.9207    0.0000 H   0  0  0  0  0  0  0  0  0  0  0  0
   17.0706   -5.9207    0.0000 H   0  0  0  0  0  0  0  0  0  0  0  0
   17.9972   -5.3857    0.0000 H   0  0  0  0  0  0  0  0  0  0  0  0
  1  2  1  0  0  0  0
  1 10  1  0  0  0  0
  1 18  1  0  0  0  0
  1 21  1  0  0  0  0
  2  3  2  0  0  0  0
  2  4  1  0  0  0  0
  2  5  1  0  0  0  0
  4  6  1  0  0  0  0
  5  8  1  0  0  0  0
  6  7  1  0  0  0  0
  6 22  1  0  0  0  0
  6 23  1  0  0  0  0
  7 24  1  0  0  0  0
  7 25  1  0  0  0  0
  7 26  1  0  0  0  0
  8  9  1  0  0  0  0
  8 27  1  0  0  0  0
  8 28  1  0  0  0  0
  9 29  1  0  0  0  0
  9 30  1  0  0  0  0
  9 31  1  0  0  0  0
 10 11  2  0  0  0  0
 10 12  1  0  0  0  0
 10 13  1  0  0  0  0
 12 14  1  0  0  0  0
 13 16  1  0  0  0  0
 14 15  1  0  0  0  0
 14 32  1  0  0  0  0
 14 33  1  0  0  0  0
 15 34  1  0  0  0  0
 15 35  1  0  0  0  0
 15 36  1  0  0  0  0
 16 17  1  0  0  0  0
 16 37  1  0  0  0  0
 16 38  1  0  0  0  0
 17 39  1  0  0  0  0
 17 40  1  0  0  0  0
 17 41  1  0  0  0  0
 18 19  1  0  0  0  0
 18 20  1  0  0  0  0
 19 42  1  0  0  0  0
 19 43  1  0  0  0  0
 19 44  1  0  0  0  0
 20 45  1  0  0  0  0
 20 46  1  0  0  0  0
 20 47  1  0  0  0  0
M  END
> <NMREDATA_VERSION>
1.1

> <NMREDATA_LEVEL>
0

> <NMREDATA_SOLVENT>
CDCl3

> <NMREDATA_FORMULA>
C11H27NO6P2

> <NMREDATA_SMILES>
CCOP(=O)(C(P(=O)(OCC)OCC)N(C)C)OCC

> <NMREDATA_ASSIGNMENT>
P2, 20.30, 2
P10, 20.30, 10

> <NMREDATA_1D_31P>
20.30, L=P2
20.30, L=P10

$$$$
