
 OpenBabel08102311372D

 50 50  0  0  0  0  0  0  0  0999 V2000
   13.8768  -14.1233    0.0000 P   0  0  0  0  0  0  0  0  0  0  0  0
   14.5418  -12.9715    0.0000 O   0  0  0  0  0  0  0  0  0  0  0  0
   13.2118  -15.2751    0.0000 O   0  0  0  0  0  0  0  0  0  0  0  0
   12.7250  -13.4583    0.0000 O   0  0  0  0  0  0  0  0  0  0  0  0
   15.0286  -14.7883    0.0000 C   0  0  0  0  0  0  0  0  0  0  0  0
   15.0286  -16.1183    0.0000 C   0  0  0  0  0  0  0  0  0  0  0  0
   16.1804  -16.7833    0.0000 C   0  0  0  0  0  0  0  0  0  0  0  0
   16.1804  -18.1133    0.0000 C   0  0  0  0  0  0  0  0  0  0  0  0
   15.0286  -18.7783    0.0000 C   0  0  0  0  0  0  0  0  0  0  0  0
   13.8768  -16.7833    0.0000 C   0  0  0  0  0  0  0  0  0  0  0  0
   13.8768  -18.1133    0.0000 C   0  0  0  0  0  0  0  0  0  0  0  0
   11.8818  -15.2751    0.0000 C   0  0  0  0  0  0  0  0  0  0  0  0
   11.2168  -16.4269    0.0000 C   0  0  0  0  0  0  0  0  0  0  0  0
   11.5732  -14.1233    0.0000 C   0  0  0  0  0  0  0  0  0  0  0  0
   10.4214  -13.4583    0.0000 C   0  0  0  0  0  0  0  0  0  0  0  0
   17.3323  -14.7883    0.0000 P   0  0  0  0  0  0  0  0  0  0  0  0
   16.6673  -15.9401    0.0000 O   0  0  0  0  0  0  0  0  0  0  0  0
   17.9973  -13.6365    0.0000 O   0  0  0  0  0  0  0  0  0  0  0  0
   18.4841  -15.4533    0.0000 O   0  0  0  0  0  0  0  0  0  0  0  0
   17.3323  -12.4847    0.0000 C   0  0  0  0  0  0  0  0  0  0  0  0
   17.9973  -11.3328    0.0000 C   0  0  0  0  0  0  0  0  0  0  0  0
   18.4841  -16.7833    0.0000 C   0  0  0  0  0  0  0  0  0  0  0  0
   19.6359  -17.4483    0.0000 C   0  0  0  0  0  0  0  0  0  0  0  0
   15.7837  -12.3065    0.0000 O   0  0  0  0  0  0  0  0  0  0  0  0
   17.0741  -16.2673    0.0000 H   0  0  0  0  0  0  0  0  0  0  0  0
   17.0741  -18.6293    0.0000 H   0  0  0  0  0  0  0  0  0  0  0  0
   15.0286  -19.8103    0.0000 H   0  0  0  0  0  0  0  0  0  0  0  0
   12.9831  -16.2673    0.0000 H   0  0  0  0  0  0  0  0  0  0  0  0
   12.9831  -18.6293    0.0000 H   0  0  0  0  0  0  0  0  0  0  0  0
   11.3468  -14.3485    0.0000 H   0  0  0  0  0  0  0  0  0  0  0  0
   10.8118  -15.2751    0.0000 H   0  0  0  0  0  0  0  0  0  0  0  0
   10.1468  -16.4269    0.0000 H   0  0  0  0  0  0  0  0  0  0  0  0
   11.7518  -17.3535    0.0000 H   0  0  0  0  0  0  0  0  0  0  0  0
   10.6818  -17.3535    0.0000 H   0  0  0  0  0  0  0  0  0  0  0  0
   11.5732  -15.1933    0.0000 H   0  0  0  0  0  0  0  0  0  0  0  0
   10.6466  -14.6583    0.0000 H   0  0  0  0  0  0  0  0  0  0  0  0
   10.4214  -12.3883    0.0000 H   0  0  0  0  0  0  0  0  0  0  0  0
    9.4948  -13.9933    0.0000 H   0  0  0  0  0  0  0  0  0  0  0  0
    9.4948  -12.9233    0.0000 H   0  0  0  0  0  0  0  0  0  0  0  0
   16.2623  -12.4847    0.0000 H   0  0  0  0  0  0  0  0  0  0  0  0
   16.7973  -11.5581    0.0000 H   0  0  0  0  0  0  0  0  0  0  0  0
   19.0673  -11.3328    0.0000 H   0  0  0  0  0  0  0  0  0  0  0  0
   17.4623  -10.4062    0.0000 H   0  0  0  0  0  0  0  0  0  0  0  0
   18.5323  -10.4061    0.0000 H   0  0  0  0  0  0  0  0  0  0  0  0
   17.5575  -17.3183    0.0000 H   0  0  0  0  0  0  0  0  0  0  0  0
   18.4841  -17.8533    0.0000 H   0  0  0  0  0  0  0  0  0  0  0  0
   19.6359  -18.5183    0.0000 H   0  0  0  0  0  0  0  0  0  0  0  0
   20.5625  -16.9133    0.0000 H   0  0  0  0  0  0  0  0  0  0  0  0
   20.5625  -17.9833    0.0000 H   0  0  0  0  0  0  0  0  0  0  0  0
   16.7285  -12.0870    0.0000 H   0  0  0  0  0  0  0  0  0  0  0  0
  1  2  2  0  0  0  0
  1  3  1  0  0  0  0
  1  4  1  0  0  0  0
  1  5  1  0  0  0  0
  3 12  1  0  0  0  0
  4 14  1  0  0  0  0
  5  6  1  0  0  0  0
  5 16  1  0  0  0  0
  5 24  1  0  0  0  0
  6 10  1  0  0  0  0
  7  8  1  0  0  0  0
  7  6  2  0  0  0  0
  7 25  1  0  0  0  0
  8  9  2  0  0  0  0
  8 26  1  0  0  0  0
  9 11  1  0  0  0  0
  9 27  1  0  0  0  0
 10 11  2  0  0  0  0
 10 28  1  0  0  0  0
 11 29  1  0  0  0  0
 12 13  1  0  0  0  0
 12 30  1  0  0  0  0
 12 31  1  0  0  0  0
 13 32  1  0  0  0  0
 13 33  1  0  0  0  0
 13 34  1  0  0  0  0
 14 15  1  0  0  0  0
 14 35  1  0  0  0  0
 14 36  1  0  0  0  0
 15 37  1  0  0  0  0
 15 38  1  0  0  0  0
 15 39  1  0  0  0  0
 16 17  2  0  0  0  0
 16 18  1  0  0  0  0
 16 19  1  0  0  0  0
 18 20  1  0  0  0  0
 19 22  1  0  0  0  0
 20 21  1  0  0  0  0
 20 40  1  0  0  0  0
 20 41  1  0  0  0  0
 21 42  1  0  0  0  0
 21 43  1  0  0  0  0
 21 44  1  0  0  0  0
 22 23  1  0  0  0  0
 22 45  1  0  0  0  0
 22 46  1  0  0  0  0
 23 47  1  0  0  0  0
 23 48  1  0  0  0  0
 23 49  1  0  0  0  0
 24 50  1  0  0  0  0
M  END
> <NMREDATA_VERSION>
1.1

> <NMREDATA_LEVEL>
0

> <NMREDATA_SOLVENT>
CDCl3

> <NMREDATA_FORMULA>
C15H26O7P2

> <NMREDATA_SMILES>
CCOP(=O)(C(P(=O)(OCC)OCC)(c1ccccc1)O)OCC

> <NMREDATA_ASSIGNMENT>
P1, 17.30, 1
P16, 17.30, 16

> <NMREDATA_1D_31P>
17.30, L=P1
17.30, L=P16

$$$$
