
 OpenBabel08102311372D

 49 49  0  0  0  0  0  0  0  0999 V2000
   15.7987  -18.1148    0.0000 O   0  0  0  0  0  0  0  0  0  0  0  0
   15.1339  -19.2663    0.0000 P   0  0  0  0  0  0  0  0  0  0  0  0
   13.9902  -18.6060    0.0000 O   0  0  0  0  0  0  0  0  0  0  0  0
   16.2857  -19.9313    0.0000 O   0  0  0  0  0  0  0  0  0  0  0  0
   14.4689  -20.4181    0.0000 O   0  0  0  0  0  0  0  0  0  0  0  0
   17.4333  -19.2733    0.0000 C   0  0  0  0  0  0  0  0  0  0  0  0
   18.5851  -19.9383    0.0000 C   0  0  0  0  0  0  0  0  0  0  0  0
   15.1345  -21.5705    0.0000 C   0  0  0  0  0  0  0  0  0  0  0  0
   14.4697  -22.7220    0.0000 C   0  0  0  0  0  0  0  0  0  0  0  0
   15.7935  -15.8187    0.0000 C   0  0  0  0  0  0  0  0  0  0  0  0
   15.1332  -16.9625    0.0000 C   0  0  0  0  0  0  0  0  0  0  0  0
   15.1355  -14.6712    0.0000 C   0  0  0  0  0  0  0  0  0  0  0  0
   13.8102  -16.9667    0.0000 C   0  0  0  0  0  0  0  0  0  0  0  0
   13.8049  -14.6706    0.0000 C   0  0  0  0  0  0  0  0  0  0  0  0
   13.1446  -15.8144    0.0000 C   0  0  0  0  0  0  0  0  0  0  0  0
   15.8005  -13.5194    0.0000 O   0  0  0  0  0  0  0  0  0  0  0  0
   15.1304  -12.3748    0.0000 P   0  0  0  0  0  0  0  0  0  0  0  0
   13.9829  -13.0328    0.0000 O   0  0  0  0  0  0  0  0  0  0  0  0
   16.2828  -11.7092    0.0000 O   0  0  0  0  0  0  0  0  0  0  0  0
   14.4647  -11.2227    0.0000 O   0  0  0  0  0  0  0  0  0  0  0  0
   17.4346  -12.3742    0.0000 C   0  0  0  0  0  0  0  0  0  0  0  0
   18.5786  -11.7037    0.0000 C   0  0  0  0  0  0  0  0  0  0  0  0
   15.1297  -10.0709    0.0000 C   0  0  0  0  0  0  0  0  0  0  0  0
   14.4639   -8.9189    0.0000 C   0  0  0  0  0  0  0  0  0  0  0  0
   10.7842  -15.5915    0.0000 O   0  0  0  0  0  0  0  0  0  0  0  0
   17.4349  -18.2033    0.0000 H   0  0  0  0  0  0  0  0  0  0  0  0
   18.3603  -18.7390    0.0000 H   0  0  0  0  0  0  0  0  0  0  0  0
   18.5851  -21.0083    0.0000 H   0  0  0  0  0  0  0  0  0  0  0  0
   19.5117  -19.4033    0.0000 H   0  0  0  0  0  0  0  0  0  0  0  0
   19.5117  -20.4733    0.0000 H   0  0  0  0  0  0  0  0  0  0  0  0
   16.2045  -21.5704    0.0000 H   0  0  0  0  0  0  0  0  0  0  0  0
   15.6695  -22.4971    0.0000 H   0  0  0  0  0  0  0  0  0  0  0  0
   13.3997  -22.7220    0.0000 H   0  0  0  0  0  0  0  0  0  0  0  0
   15.0047  -23.6486    0.0000 H   0  0  0  0  0  0  0  0  0  0  0  0
   13.9347  -23.6487    0.0000 H   0  0  0  0  0  0  0  0  0  0  0  0
   16.8255  -15.8202    0.0000 H   0  0  0  0  0  0  0  0  0  0  0  0
   13.2957  -17.8613    0.0000 H   0  0  0  0  0  0  0  0  0  0  0  0
   13.2891  -13.7768    0.0000 H   0  0  0  0  0  0  0  0  0  0  0  0
   17.4381  -13.4442    0.0000 H   0  0  0  0  0  0  0  0  0  0  0  0
   18.3639  -12.9047    0.0000 H   0  0  0  0  0  0  0  0  0  0  0  0
   19.5087  -12.2326    0.0000 H   0  0  0  0  0  0  0  0  0  0  0  0
   18.5716  -10.6337    0.0000 H   0  0  0  0  0  0  0  0  0  0  0  0
   19.5017  -11.1627    0.0000 H   0  0  0  0  0  0  0  0  0  0  0  0
   16.1997  -10.0707    0.0000 H   0  0  0  0  0  0  0  0  0  0  0  0
   15.6644   -9.1441    0.0000 H   0  0  0  0  0  0  0  0  0  0  0  0
   14.9985   -7.9920    0.0000 H   0  0  0  0  0  0  0  0  0  0  0  0
   13.3939   -8.9194    0.0000 H   0  0  0  0  0  0  0  0  0  0  0  0
   13.9285   -7.9925    0.0000 H   0  0  0  0  0  0  0  0  0  0  0  0
   10.3941  -14.7396    0.0000 H   0  0  0  0  0  0  0  0  0  0  0  0
  1  2  1  0  0  0  0
  1 11  1  0  0  0  0
  2  3  2  0  0  0  0
  2  4  1  0  0  0  0
  2  5  1  0  0  0  0
  4  6  1  0  0  0  0
  5  8  1  0  0  0  0
  6  7  1  0  0  0  0
  6 26  1  0  0  0  0
  6 27  1  0  0  0  0
  7 28  1  0  0  0  0
  7 29  1  0  0  0  0
  7 30  1  0  0  0  0
  8  9  1  0  0  0  0
  8 31  1  0  0  0  0
  8 32  1  0  0  0  0
  9 33  1  0  0  0  0
  9 34  1  0  0  0  0
  9 35  1  0  0  0  0
 10 11  1  0  0  0  0
 10 12  2  0  0  0  0
 10 36  1  0  0  0  0
 11 13  2  0  0  0  0
 12 14  1  0  0  0  0
 12 16  1  0  0  0  0
 13 15  1  0  0  0  0
 13 37  1  0  0  0  0
 14 15  2  0  0  0  0
 14 38  1  0  0  0  0
 15 25  1  0  0  0  0
 16 17  1  0  0  0  0
 17 18  2  0  0  0  0
 17 19  1  0  0  0  0
 17 20  1  0  0  0  0
 19 21  1  0  0  0  0
 20 23  1  0  0  0  0
 21 22  1  0  0  0  0
 21 39  1  0  0  0  0
 21 40  1  0  0  0  0
 22 41  1  0  0  0  0
 22 42  1  0  0  0  0
 22 43  1  0  0  0  0
 23 24  1  0  0  0  0
 23 44  1  0  0  0  0
 23 45  1  0  0  0  0
 24 46  1  0  0  0  0
 24 47  1  0  0  0  0
 24 48  1  0  0  0  0
 25 49  1  0  0  0  0
M  END
> <NMREDATA_VERSION>
1.1

> <NMREDATA_LEVEL>
0

> <NMREDATA_SOLVENT>
CDCl3

> <NMREDATA_FORMULA>
C14H24O9P2

> <NMREDATA_SMILES>
CCOP(=O)(Oc1cc(cc(c1)O)OP(=O)(OCC)OCC)OCC

> <NMREDATA_ASSIGNMENT>
P2, -6.45, 2
P17, -6.45, 17

> <NMREDATA_1D_31P>
-6.45, L=P2
-6.45, L=P17

$$$$
