
 OpenBabel08102311372D

 54 54  0  0  0  0  0  0  0  0999 V2000
   18.0612  -16.2106    0.0000 C   0  0  0  0  0  0  0  0  0  0  0  0
   18.0612  -17.5406    0.0000 C   0  0  0  0  0  0  0  0  0  0  0  0
   16.9094  -15.5456    0.0000 C   0  0  0  0  0  0  0  0  0  0  0  0
   16.9094  -18.2056    0.0000 C   0  0  0  0  0  0  0  0  0  0  0  0
   15.7575  -16.2106    0.0000 C   0  0  0  0  0  0  0  0  0  0  0  0
   15.7575  -17.5406    0.0000 C   0  0  0  0  0  0  0  0  0  0  0  0
   14.6057  -15.5456    0.0000 O   0  0  0  0  0  0  0  0  0  0  0  0
   19.2130  -15.5456    0.0000 C   0  0  0  0  0  0  0  0  0  0  0  0
   20.3648  -16.2106    0.0000 C   0  0  0  0  0  0  0  0  0  0  0  0
   20.3648  -17.5406    0.0000 P   0  0  0  0  0  0  0  0  0  0  0  0
   19.0348  -17.5406    0.0000 O   0  0  0  0  0  0  0  0  0  0  0  0
   21.6948  -17.5406    0.0000 O   0  0  0  0  0  0  0  0  0  0  0  0
   20.3648  -18.8706    0.0000 O   0  0  0  0  0  0  0  0  0  0  0  0
   21.5166  -15.5456    0.0000 P   0  0  0  0  0  0  0  0  0  0  0  0
   22.1816  -16.6974    0.0000 O   0  0  0  0  0  0  0  0  0  0  0  0
   20.8516  -14.3938    0.0000 O   0  0  0  0  0  0  0  0  0  0  0  0
   22.6684  -14.8806    0.0000 O   0  0  0  0  0  0  0  0  0  0  0  0
   21.5166  -13.2420    0.0000 C   0  0  0  0  0  0  0  0  0  0  0  0
   20.8516  -12.0902    0.0000 C   0  0  0  0  0  0  0  0  0  0  0  0
   23.8202  -15.5456    0.0000 C   0  0  0  0  0  0  0  0  0  0  0  0
   24.9721  -14.8806    0.0000 C   0  0  0  0  0  0  0  0  0  0  0  0
   22.3598  -18.6924    0.0000 C   0  0  0  0  0  0  0  0  0  0  0  0
   23.6898  -18.6924    0.0000 C   0  0  0  0  0  0  0  0  0  0  0  0
   19.2130  -19.5356    0.0000 C   0  0  0  0  0  0  0  0  0  0  0  0
   19.2130  -20.8656    0.0000 C   0  0  0  0  0  0  0  0  0  0  0  0
   16.6341  -12.8992    0.0000 O   0  0  0  0  0  0  0  0  0  0  0  0
   18.9549  -18.0566    0.0000 H   0  0  0  0  0  0  0  0  0  0  0  0
   16.9094  -19.2376    0.0000 H   0  0  0  0  0  0  0  0  0  0  0  0
   14.8638  -18.0566    0.0000 H   0  0  0  0  0  0  0  0  0  0  0  0
   14.6057  -14.6086    0.0000 H   0  0  0  0  0  0  0  0  0  0  0  0
   19.2130  -14.4756    0.0000 H   0  0  0  0  0  0  0  0  0  0  0  0
   20.1396  -15.0106    0.0000 H   0  0  0  0  0  0  0  0  0  0  0  0
   21.2914  -16.7456    0.0000 H   0  0  0  0  0  0  0  0  0  0  0  0
   22.5866  -13.2420    0.0000 H   0  0  0  0  0  0  0  0  0  0  0  0
   22.0516  -12.3154    0.0000 H   0  0  0  0  0  0  0  0  0  0  0  0
   21.3866  -11.1636    0.0000 H   0  0  0  0  0  0  0  0  0  0  0  0
   19.7816  -12.0902    0.0000 H   0  0  0  0  0  0  0  0  0  0  0  0
   20.3166  -11.1636    0.0000 H   0  0  0  0  0  0  0  0  0  0  0  0
   23.8202  -16.6156    0.0000 H   0  0  0  0  0  0  0  0  0  0  0  0
   24.7468  -16.0806    0.0000 H   0  0  0  0  0  0  0  0  0  0  0  0
   25.8987  -15.4156    0.0000 H   0  0  0  0  0  0  0  0  0  0  0  0
   24.9721  -13.8106    0.0000 H   0  0  0  0  0  0  0  0  0  0  0  0
   25.8988  -14.3456    0.0000 H   0  0  0  0  0  0  0  0  0  0  0  0
   21.8248  -19.6190    0.0000 H   0  0  0  0  0  0  0  0  0  0  0  0
   22.8948  -19.6190    0.0000 H   0  0  0  0  0  0  0  0  0  0  0  0
   24.2248  -19.6190    0.0000 H   0  0  0  0  0  0  0  0  0  0  0  0
   24.2248  -17.7658    0.0000 H   0  0  0  0  0  0  0  0  0  0  0  0
   24.7598  -18.6924    0.0000 H   0  0  0  0  0  0  0  0  0  0  0  0
   18.2864  -19.0006    0.0000 H   0  0  0  0  0  0  0  0  0  0  0  0
   18.2864  -20.0706    0.0000 H   0  0  0  0  0  0  0  0  0  0  0  0
   18.2864  -21.4006    0.0000 H   0  0  0  0  0  0  0  0  0  0  0  0
   20.1396  -21.4006    0.0000 H   0  0  0  0  0  0  0  0  0  0  0  0
   19.2130  -21.9356    0.0000 H   0  0  0  0  0  0  0  0  0  0  0  0
   17.3927  -12.3493    0.0000 H   0  0  0  0  0  0  0  0  0  0  0  0
  1  2  1  0  0  0  0
  1  3  2  0  0  0  0
  1  8  1  0  0  0  0
  2  4  2  0  0  0  0
  2 27  1  0  0  0  0
  3  5  1  0  0  0  0
  3 26  1  0  0  0  0
  4  6  1  0  0  0  0
  4 28  1  0  0  0  0
  5  6  2  0  0  0  0
  5  7  1  0  0  0  0
  6 29  1  0  0  0  0
  7 30  1  0  0  0  0
  8  9  1  0  0  0  0
  8 31  1  0  0  0  0
  8 32  1  0  0  0  0
  9 10  1  0  0  0  0
  9 14  1  0  0  0  0
  9 33  1  0  0  0  0
 10 11  2  0  0  0  0
 10 12  1  0  0  0  0
 10 13  1  0  0  0  0
 12 22  1  0  0  0  0
 13 24  1  0  0  0  0
 14 15  2  0  0  0  0
 14 16  1  0  0  0  0
 14 17  1  0  0  0  0
 16 18  1  0  0  0  0
 17 20  1  0  0  0  0
 18 19  1  0  0  0  0
 18 34  1  0  0  0  0
 18 35  1  0  0  0  0
 19 36  1  0  0  0  0
 19 37  1  0  0  0  0
 19 38  1  0  0  0  0
 20 21  1  0  0  0  0
 20 39  1  0  0  0  0
 20 40  1  0  0  0  0
 21 41  1  0  0  0  0
 21 42  1  0  0  0  0
 21 43  1  0  0  0  0
 22 23  1  0  0  0  0
 22 44  1  0  0  0  0
 22 45  1  0  0  0  0
 23 46  1  0  0  0  0
 23 47  1  0  0  0  0
 23 48  1  0  0  0  0
 24 25  1  0  0  0  0
 24 49  1  0  0  0  0
 24 50  1  0  0  0  0
 25 51  1  0  0  0  0
 25 52  1  0  0  0  0
 25 53  1  0  0  0  0
 26 54  1  0  0  0  0
M  END
> <NMREDATA_VERSION>
1.1

> <NMREDATA_LEVEL>
0

> <NMREDATA_SOLVENT>
CDCl3

> <NMREDATA_FORMULA>
C16H28O8P2

> <NMREDATA_SMILES>
CCOP(=O)(C(P(=O)(OCC)OCC)Cc1cccc(c1O)O)OCC

> <NMREDATA_ASSIGNMENT>
P10, 26.48, 10
P14, 26.48, 14

> <NMREDATA_1D_31P>
26.48, L=P10
26.48, L=P14

$$$$
