
 OpenBabel08102311362D

 33 33  0  0  0  0  0  0  0  0999 V2000
    8.2185   -9.3020    0.0000 C    0  0  0  0  0  0  0  0  0  0  0  0
    8.2185  -10.6320    0.0000 C    0  0  0  0  0  0  0  0  0  0  0  0
    7.0666   -8.6370    0.0000 C    0  0  0  0  0  0  0  0  0  0  0  0
    7.0666  -11.2970    0.0000 C    0  0  0  0  0  0  0  0  0  0  0  0
    5.9148   -9.3020    0.0000 C    0  0  0  0  0  0  0  0  0  0  0  0
    5.9148  -10.6320    0.0000 C    0  0  0  0  0  0  0  0  0  0  0  0
    4.4547  -11.3611    0.0000 O    0  0  0  0  0  0  0  0  0  0  0  0
    4.8553   -8.8133    0.0000 O    0  0  0  0  0  0  0  0  0  0  0  0
    9.3100   -8.1082    0.0000 C    0  0  0  0  0  0  0  0  0  0  0  0
   11.6175   -7.9640    0.0000 C    0  0  0  0  0  0  0  0  0  0  0  0
   14.0692   -7.8678    0.0000 C    0  0  3  0  0  0  0  0  0  0  0  0
   15.7677   -6.1533    0.0000 P    0  0  3  0  0  0  0  0  0  0  0  0
   15.6235   -9.8708    0.0000 P    0  0  3  0  0  0  0  0  0  0  0  0
   15.7677   -4.3586    0.0000 O    0  0  0  0  0  0  0  0  0  0  0  0
   16.9695   -5.2078    0.0000 O    0  0  0  0  0  0  0  0  0  0  0  0
   16.8734   -6.9064    0.0000 O    0  0  0  0  0  0  0  0  0  0  0  0
   15.7196  -12.1142    0.0000 O    0  0  0  0  0  0  0  0  0  0  0  0
   16.8253   -9.1658    0.0000 O    0  0  0  0  0  0  0  0  0  0  0  0
   16.8253  -11.2169    0.0000 O    0  0  0  0  0  0  0  0  0  0  0  0
   18.6360   -4.9514    0.0000 Na   0  0  0  0  0  0  0  0  0  0  0  0
   18.6360  -11.7617    0.0000 Na   0  0  0  0  0  0  0  0  0  0  0  0
    9.1122  -11.1480    0.0000 H    0  0  0  0  0  0  0  0  0  0  0  0
    7.0666   -7.6050    0.0000 H    0  0  0  0  0  0  0  0  0  0  0  0
    7.0666  -12.3290    0.0000 H    0  0  0  0  0  0  0  0  0  0  0  0
    3.6730  -10.8444    0.0000 H    0  0  0  0  0  0  0  0  0  0  0  0
    4.7698   -7.8802    0.0000 H    0  0  0  0  0  0  0  0  0  0  0  0
    8.8482   -7.1430    0.0000 H    0  0  0  0  0  0  0  0  0  0  0  0
    9.8519   -7.1856    0.0000 H    0  0  0  0  0  0  0  0  0  0  0  0
   11.5632   -6.8954    0.0000 H    0  0  0  0  0  0  0  0  0  0  0  0
   12.3393   -7.1741    0.0000 H    0  0  0  0  0  0  0  0  0  0  0  0
   13.6381   -6.8885    0.0000 H    0  0  0  0  0  0  0  0  0  0  0  0
   16.8014   -7.8737    0.0000 H    0  0  0  0  0  0  0  0  0  0  0  0
   17.6687   -9.6450    0.0000 H    0  0  0  0  0  0  0  0  0  0  0  0
  1  2  2  0  0  0  0
  1  3  1  0  0  0  0
  1  9  1  0  0  0  0
  2  4  1  0  0  0  0
  2 22  1  0  0  0  0
  3  5  2  0  0  0  0
  3 23  1  0  0  0  0
  4  6  2  0  0  0  0
  4 24  1  0  0  0  0
  5  6  1  0  0  0  0
  5  8  1  0  0  0  0
  6  7  1  0  0  0  0
  7 25  1  0  0  0  0
  8 26  1  0  0  0  0
  9 10  1  0  0  0  0
  9 27  1  0  0  0  0
  9 28  1  0  0  0  0
 10 11  1  0  0  0  0
 10 29  1  0  0  0  0
 10 30  1  0  0  0  0
 11 12  1  0  0  0  0
 11 13  1  0  0  0  0
 11 31  1  0  0  0  0
 12 14  2  0  0  0  0
 12 15  1  0  0  0  0
 12 16  1  0  0  0  0
 13 17  2  0  0  0  0
 13 18  1  0  0  0  0
 13 19  1  0  0  0  0
 15 20  1  0  0  0  0
 16 32  1  0  0  0  0
 18 33  1  0  0  0  0
 19 21  1  0  0  0  0
M  END
> <NMREDATA_VERSION>
1.1

> <NMREDATA_LEVEL>
0

> <NMREDATA_SOLVENT>
D2O

> <NMREDATA_FORMULA>
C9H12Na2O8P2

> <NMREDATA_SMILES>
[Na]OP(=O)(C(P(=O)(O[Na])O)CCc1ccc(c(c1)O)O)O

> <NMREDATA_ASSIGNMENT>
P12, 21.97, 12
P13, 21.97, 13

> <NMREDATA_1D_31P>
21.97, L=P12
21.97, L=P13

$$$$
