
 OpenBabel08102311362D

 53 52  0  0  0  0  0  0  0  0999 V2000
   21.0041  -16.7400    0.0000 O   0  0  0  0  0  0  0  0  0  0  0  0
   18.6806  -16.7400    0.0000 P   0  0  0  0  0  0  0  0  0  0  0  0
   18.6806  -14.4165    0.0000 O   0  0  0  0  0  0  0  0  0  0  0  0
   18.6806  -19.0635    0.0000 O   0  0  0  0  0  0  0  0  0  0  0  0
   16.3571  -16.7400    0.0000 C   0  0  0  0  0  0  0  0  0  0  0  0
   11.7101  -16.7400    0.0000 P   0  0  0  0  0  0  0  0  0  0  0  0
   13.7223  -15.5782    0.0000 O   0  0  0  0  0  0  0  0  0  0  0  0
    9.6979  -17.9017    0.0000 O   0  0  0  0  0  0  0  0  0  0  0  0
   10.5483  -14.7278    0.0000 O   0  0  0  0  0  0  0  0  0  0  0  0
   12.8718  -18.7522    0.0000 C   0  0  0  0  0  0  0  0  0  0  0  0
   15.1953  -18.7522    0.0000 N   0  0  0  0  0  0  0  0  0  0  0  0
   16.3571  -20.7644    0.0000 C   0  0  0  0  0  0  0  0  0  0  0  0
   18.6806  -20.7644    0.0000 C   0  0  0  0  0  0  0  0  0  0  0  0
   19.8423  -22.7766    0.0000 C   0  0  0  0  0  0  0  0  0  0  0  0
   18.7322  -24.2925    0.0000 O   0  0  0  0  0  0  0  0  0  0  0  0
   21.2800  -23.2349    0.0000 O   0  0  0  0  0  0  0  0  0  0  0  0
   20.6928  -13.2547    0.0000 C   0  0  0  0  0  0  0  0  0  0  0  0
   20.6928  -10.9312    0.0000 C   0  0  0  0  0  0  0  0  0  0  0  0
   20.6928  -20.2252    0.0000 C   0  0  0  0  0  0  0  0  0  0  0  0
   20.6928  -22.5487    0.0000 C   0  0  0  0  0  0  0  0  0  0  0  0
   15.7345  -16.7400    0.0000 C   0  0  0  0  0  0  0  0  0  0  0  0
   17.7467  -15.5782    0.0000 C   0  0  0  0  0  0  0  0  0  0  0  0
    9.6979  -20.2252    0.0000 C   0  0  0  0  0  0  0  0  0  0  0  0
    7.6857  -21.3870    0.0000 C   0  0  0  0  0  0  0  0  0  0  0  0
   15.8221  -15.8133    0.0000 H   0  0  0  0  0  0  0  0  0  0  0  0
   15.2871  -16.7400    0.0000 H   0  0  0  0  0  0  0  0  0  0  0  0
   12.3368  -19.6788    0.0000 H   0  0  0  0  0  0  0  0  0  0  0  0
   13.4068  -19.6788    0.0000 H   0  0  0  0  0  0  0  0  0  0  0  0
   15.8221  -21.6911    0.0000 H   0  0  0  0  0  0  0  0  0  0  0  0
   16.8921  -21.6910    0.0000 H   0  0  0  0  0  0  0  0  0  0  0  0
   19.2156  -19.8378    0.0000 H   0  0  0  0  0  0  0  0  0  0  0  0
   19.7506  -20.7644    0.0000 H   0  0  0  0  0  0  0  0  0  0  0  0
   21.4799  -24.1503    0.0000 H   0  0  0  0  0  0  0  0  0  0  0  0
   21.6195  -13.7897    0.0000 H   0  0  0  0  0  0  0  0  0  0  0  0
   21.6194  -12.7197    0.0000 H   0  0  0  0  0  0  0  0  0  0  0  0
   21.6194  -10.3962    0.0000 H   0  0  0  0  0  0  0  0  0  0  0  0
   19.7662  -10.3962    0.0000 H   0  0  0  0  0  0  0  0  0  0  0  0
   20.6928   -9.8612    0.0000 H   0  0  0  0  0  0  0  0  0  0  0  0
   21.6194  -19.6902    0.0000 H   0  0  0  0  0  0  0  0  0  0  0  0
   21.6194  -20.7602    0.0000 H   0  0  0  0  0  0  0  0  0  0  0  0
   19.7662  -23.0837    0.0000 H   0  0  0  0  0  0  0  0  0  0  0  0
   21.6194  -23.0837    0.0000 H   0  0  0  0  0  0  0  0  0  0  0  0
   20.6928  -23.6187    0.0000 H   0  0  0  0  0  0  0  0  0  0  0  0
   15.7345  -17.8100    0.0000 H   0  0  0  0  0  0  0  0  0  0  0  0
   16.6612  -17.2750    0.0000 H   0  0  0  0  0  0  0  0  0  0  0  0
   18.6734  -16.1132    0.0000 H   0  0  0  0  0  0  0  0  0  0  0  0
   17.7467  -14.5082    0.0000 H   0  0  0  0  0  0  0  0  0  0  0  0
   18.6733  -15.0432    0.0000 H   0  0  0  0  0  0  0  0  0  0  0  0
   10.6246  -20.7602    0.0000 H   0  0  0  0  0  0  0  0  0  0  0  0
    9.6979  -21.2952    0.0000 H   0  0  0  0  0  0  0  0  0  0  0  0
    6.7590  -20.8520    0.0000 H   0  0  0  0  0  0  0  0  0  0  0  0
    7.6857  -22.4570    0.0000 H   0  0  0  0  0  0  0  0  0  0  0  0
    6.7591  -21.9220    0.0000 H   0  0  0  0  0  0  0  0  0  0  0  0
  1  2  2  0  0  0  0
  2  3  1  0  0  0  0
  2  4  1  0  0  0  0
  2  5  1  0  0  0  0
  3 17  1  0  0  0  0
  4 19  1  0  0  0  0
  5 11  1  0  0  0  0
  5 25  1  0  0  0  0
  5 26  1  0  0  0  0
  6  7  1  0  0  0  0
  6  8  1  0  0  0  0
  6  9  2  0  0  0  0
  6 10  1  0  0  0  0
  7 21  1  0  0  0  0
  8 23  1  0  0  0  0
 10 11  1  0  0  0  0
 10 27  1  0  0  0  0
 10 28  1  0  0  0  0
 11 12  1  0  0  0  0
 12 13  1  0  0  0  0
 12 29  1  0  0  0  0
 12 30  1  0  0  0  0
 13 14  1  0  0  0  0
 13 31  1  0  0  0  0
 13 32  1  0  0  0  0
 14 15  2  0  0  0  0
 14 16  1  0  0  0  0
 16 33  1  0  0  0  0
 17 18  1  0  0  0  0
 17 34  1  0  0  0  0
 17 35  1  0  0  0  0
 18 36  1  0  0  0  0
 18 37  1  0  0  0  0
 18 38  1  0  0  0  0
 19 20  1  0  0  0  0
 19 39  1  0  0  0  0
 19 40  1  0  0  0  0
 20 41  1  0  0  0  0
 20 42  1  0  0  0  0
 20 43  1  0  0  0  0
 21 22  1  0  0  0  0
 21 44  1  0  0  0  0
 21 45  1  0  0  0  0
 22 46  1  0  0  0  0
 22 47  1  0  0  0  0
 22 48  1  0  0  0  0
 23 24  1  0  0  0  0
 23 49  1  0  0  0  0
 23 50  1  0  0  0  0
 24 51  1  0  0  0  0
 24 52  1  0  0  0  0
 24 53  1  0  0  0  0
M  END
> <NMREDATA_VERSION>
1.1

> <NMREDATA_LEVEL>
0

> <NMREDATA_SOLVENT>
CDCl3

> <NMREDATA_FORMULA>
C13H29NO8P2

> <NMREDATA_SMILES>
CCOP(=O)(CN(CP(=O)(OCC)OCC)CCC(=O)O)OCC

> <NMREDATA_ASSIGNMENT>
P2, 22.10, 2
P6, 22.10, 6

> <NMREDATA_1D_31P>
22.10, L=P2
22.10, L=P6

$$$$
