
 OpenBabel08102311362D

 45 44  0  0  0  0  0  0  0  0999 V2000
   12.7697   -9.5372    0.0000 C   0  0  0  0  0  0  0  0  0  0  0  0
   14.4399   -8.5730    0.0000 P   0  0  0  0  0  0  0  0  0  0  0  0
   12.7697  -11.4657    0.0000 P   0  0  0  0  0  0  0  0  0  0  0  0
   12.7697  -13.3942    0.0000 O   0  0  0  0  0  0  0  0  0  0  0  0
   13.4756   -6.9028    0.0000 O   0  0  0  0  0  0  0  0  0  0  0  0
   15.4041  -10.2431    0.0000 O   0  0  0  0  0  0  0  0  0  0  0  0
   16.1100   -7.6087    0.0000 O   0  0  0  0  0  0  0  0  0  0  0  0
   10.8412  -11.4657    0.0000 O   0  0  0  0  0  0  0  0  0  0  0  0
   14.6982  -11.4657    0.0000 O   0  0  0  0  0  0  0  0  0  0  0  0
   11.0996   -8.5730    0.0000 C   0  0  0  0  0  0  0  0  0  0  0  0
    9.4295   -9.5372    0.0000 C   0  0  0  0  0  0  0  0  0  0  0  0
   17.3326  -10.2431    0.0000 C   0  0  0  0  0  0  0  0  0  0  0  0
   18.2969  -11.9132    0.0000 C   0  0  0  0  0  0  0  0  0  0  0  0
   16.1100   -5.6802    0.0000 C   0  0  0  0  0  0  0  0  0  0  0  0
   17.7801   -4.7160    0.0000 C   0  0  0  0  0  0  0  0  0  0  0  0
    9.8770   -9.7956    0.0000 C   0  0  0  0  0  0  0  0  0  0  0  0
    7.9485   -9.7956    0.0000 C   0  0  0  0  0  0  0  0  0  0  0  0
   15.6625  -13.1358    0.0000 C   0  0  0  0  0  0  0  0  0  0  0  0
   17.5910  -13.1358    0.0000 C   0  0  0  0  0  0  0  0  0  0  0  0
   11.8431  -10.0722    0.0000 H   0  0  0  0  0  0  0  0  0  0  0  0
   11.0996   -7.5030    0.0000 H   0  0  0  0  0  0  0  0  0  0  0  0
   10.1730   -8.0380    0.0000 H   0  0  0  0  0  0  0  0  0  0  0  0
    8.5029   -9.0022    0.0000 H   0  0  0  0  0  0  0  0  0  0  0  0
    9.4295  -10.6072    0.0000 H   0  0  0  0  0  0  0  0  0  0  0  0
    8.5028  -10.0722    0.0000 H   0  0  0  0  0  0  0  0  0  0  0  0
   17.8676   -9.3164    0.0000 H   0  0  0  0  0  0  0  0  0  0  0  0
   18.4026  -10.2431    0.0000 H   0  0  0  0  0  0  0  0  0  0  0  0
   17.7619  -12.8399    0.0000 H   0  0  0  0  0  0  0  0  0  0  0  0
   19.3669  -11.9132    0.0000 H   0  0  0  0  0  0  0  0  0  0  0  0
   18.8319  -12.8398    0.0000 H   0  0  0  0  0  0  0  0  0  0  0  0
   15.1834   -5.1452    0.0000 H   0  0  0  0  0  0  0  0  0  0  0  0
   16.1100   -4.6102    0.0000 H   0  0  0  0  0  0  0  0  0  0  0  0
   18.7067   -5.2510    0.0000 H   0  0  0  0  0  0  0  0  0  0  0  0
   17.7801   -3.6460    0.0000 H   0  0  0  0  0  0  0  0  0  0  0  0
   18.7068   -4.1810    0.0000 H   0  0  0  0  0  0  0  0  0  0  0  0
   10.4120   -8.8690    0.0000 H   0  0  0  0  0  0  0  0  0  0  0  0
    9.3420   -8.8690    0.0000 H   0  0  0  0  0  0  0  0  0  0  0  0
    7.4135   -8.8690    0.0000 H   0  0  0  0  0  0  0  0  0  0  0  0
    7.4135  -10.7222    0.0000 H   0  0  0  0  0  0  0  0  0  0  0  0
    6.8785   -9.7956    0.0000 H   0  0  0  0  0  0  0  0  0  0  0  0
   15.1275  -14.0625    0.0000 H   0  0  0  0  0  0  0  0  0  0  0  0
   16.1975  -14.0624    0.0000 H   0  0  0  0  0  0  0  0  0  0  0  0
   18.1260  -14.0624    0.0000 H   0  0  0  0  0  0  0  0  0  0  0  0
   18.1260  -12.2092    0.0000 H   0  0  0  0  0  0  0  0  0  0  0  0
   18.6610  -13.1358    0.0000 H   0  0  0  0  0  0  0  0  0  0  0  0
  1  2  1  0  0  0  0
  1  3  1  0  0  0  0
  1 10  1  0  0  0  0
  1 20  1  0  0  0  0
  2  5  2  0  0  0  0
  2  6  1  0  0  0  0
  2  7  1  0  0  0  0
  3  4  2  0  0  0  0
  3  8  1  0  0  0  0
  3  9  1  0  0  0  0
  6 12  1  0  0  0  0
  7 14  1  0  0  0  0
  8 16  1  0  0  0  0
  9 18  1  0  0  0  0
 10 11  1  0  0  0  0
 10 21  1  0  0  0  0
 10 22  1  0  0  0  0
 11 23  1  0  0  0  0
 11 24  1  0  0  0  0
 11 25  1  0  0  0  0
 12 13  1  0  0  0  0
 12 26  1  0  0  0  0
 12 27  1  0  0  0  0
 13 28  1  0  0  0  0
 13 29  1  0  0  0  0
 13 30  1  0  0  0  0
 14 15  1  0  0  0  0
 14 31  1  0  0  0  0
 14 32  1  0  0  0  0
 15 33  1  0  0  0  0
 15 34  1  0  0  0  0
 15 35  1  0  0  0  0
 16 17  1  0  0  0  0
 16 36  1  0  0  0  0
 16 37  1  0  0  0  0
 17 38  1  0  0  0  0
 17 39  1  0  0  0  0
 17 40  1  0  0  0  0
 18 19  1  0  0  0  0
 18 41  1  0  0  0  0
 18 42  1  0  0  0  0
 19 43  1  0  0  0  0
 19 44  1  0  0  0  0
 19 45  1  0  0  0  0
M  END
> <NMREDATA_VERSION>
1.1

> <NMREDATA_LEVEL>
0

> <NMREDATA_SOLVENT>
CDCl3

> <NMREDATA_FORMULA>
C11H26O6P2

> <NMREDATA_SMILES>
CCC(P(=O)(OCC)OCC)P(=O)(OCC)OCC

> <NMREDATA_ASSIGNMENT>
P2, 24.90, 2
P3, 24.90, 3

> <NMREDATA_1D_31P>
24.90, L=P2
24.90, L=P3

$$$$
