
 OpenBabel08102311372D

 59 58  0  0  0  0  0  0  0  0999 V2000
   17.3535  -15.2717    0.0000 P   0  0  0  0  0  0  0  0  0  0  0  0
   18.0182  -14.1197    0.0000 O   0  0  0  0  0  0  0  0  0  0  0  0
   16.6889  -16.4149    0.0000 O   0  0  0  0  0  0  0  0  0  0  0  0
   16.2012  -14.6071    0.0000 O   0  0  0  0  0  0  0  0  0  0  0  0
   15.3593  -16.4149    0.0000 C   0  0  0  0  0  0  0  0  0  0  0  0
   14.6944  -17.5673    0.0000 C   0  0  0  0  0  0  0  0  0  0  0  0
   15.0580  -15.2717    0.0000 C   0  0  0  0  0  0  0  0  0  0  0  0
   13.9056  -14.6071    0.0000 C   0  0  0  0  0  0  0  0  0  0  0  0
   18.4964  -15.9275    0.0000 C   0  0  0  0  0  0  0  0  0  0  0  0
   19.6488  -15.2717    0.0000 P   0  0  0  0  0  0  0  0  0  0  0  0
   18.9841  -14.1197    0.0000 O   0  0  0  0  0  0  0  0  0  0  0  0
   20.3137  -16.4149    0.0000 O   0  0  0  0  0  0  0  0  0  0  0  0
   20.8011  -14.6071    0.0000 O   0  0  0  0  0  0  0  0  0  0  0  0
   21.6430  -16.4149    0.0000 C   0  0  0  0  0  0  0  0  0  0  0  0
   22.3079  -17.5673    0.0000 C   0  0  0  0  0  0  0  0  0  0  0  0
   20.8011  -13.2775    0.0000 C   0  0  0  0  0  0  0  0  0  0  0  0
   21.9532  -12.6129    0.0000 C   0  0  0  0  0  0  0  0  0  0  0  0
   18.4964  -17.2567    0.0000 N   0  0  0  0  0  0  0  0  0  0  0  0
   17.3535  -17.9217    0.0000 C   0  0  0  0  0  0  0  0  0  0  0  0
   19.6488  -17.9217    0.0000 C   0  0  0  0  0  0  0  0  0  0  0  0
   12.7532  -15.2717    0.0000 C   0  0  0  0  0  0  0  0  0  0  0  0
   13.3651  -17.5673    0.0000 C   0  0  0  0  0  0  0  0  0  0  0  0
   21.9532  -11.2833    0.0000 C   0  0  0  0  0  0  0  0  0  0  0  0
   23.6375  -17.5673    0.0000 C   0  0  0  0  0  0  0  0  0  0  0  0
   14.8242  -15.4883    0.0000 H   0  0  0  0  0  0  0  0  0  0  0  0
   14.2893  -16.4151    0.0000 H   0  0  0  0  0  0  0  0  0  0  0  0
   15.2295  -18.4939    0.0000 H   0  0  0  0  0  0  0  0  0  0  0  0
   14.1595  -18.4940    0.0000 H   0  0  0  0  0  0  0  0  0  0  0  0
   15.0599  -16.3417    0.0000 H   0  0  0  0  0  0  0  0  0  0  0  0
   14.1319  -15.8077    0.0000 H   0  0  0  0  0  0  0  0  0  0  0  0
   13.9056  -13.5371    0.0000 H   0  0  0  0  0  0  0  0  0  0  0  0
   12.9791  -14.0719    0.0000 H   0  0  0  0  0  0  0  0  0  0  0  0
   19.4214  -16.4654    0.0000 H   0  0  0  0  0  0  0  0  0  0  0  0
   22.1781  -15.4883    0.0000 H   0  0  0  0  0  0  0  0  0  0  0  0
   22.7130  -16.4151    0.0000 H   0  0  0  0  0  0  0  0  0  0  0  0
   21.7728  -18.4939    0.0000 H   0  0  0  0  0  0  0  0  0  0  0  0
   22.8428  -18.4940    0.0000 H   0  0  0  0  0  0  0  0  0  0  0  0
   19.8746  -12.7423    0.0000 H   0  0  0  0  0  0  0  0  0  0  0  0
   20.8014  -12.2075    0.0000 H   0  0  0  0  0  0  0  0  0  0  0  0
   22.8797  -13.1481    0.0000 H   0  0  0  0  0  0  0  0  0  0  0  0
   22.8799  -12.0780    0.0000 H   0  0  0  0  0  0  0  0  0  0  0  0
   16.4251  -17.3898    0.0000 H   0  0  0  0  0  0  0  0  0  0  0  0
   17.3571  -18.9917    0.0000 H   0  0  0  0  0  0  0  0  0  0  0  0
   16.4287  -18.4598    0.0000 H   0  0  0  0  0  0  0  0  0  0  0  0
   19.6490  -18.9917    0.0000 H   0  0  0  0  0  0  0  0  0  0  0  0
   20.5753  -17.3865    0.0000 H   0  0  0  0  0  0  0  0  0  0  0  0
   20.5756  -18.4565    0.0000 H   0  0  0  0  0  0  0  0  0  0  0  0
   11.8268  -14.7363    0.0000 H   0  0  0  0  0  0  0  0  0  0  0  0
   12.7527  -16.3417    0.0000 H   0  0  0  0  0  0  0  0  0  0  0  0
   11.8263  -15.8063    0.0000 H   0  0  0  0  0  0  0  0  0  0  0  0
   12.8301  -16.6407    0.0000 H   0  0  0  0  0  0  0  0  0  0  0  0
   12.8301  -18.4939    0.0000 H   0  0  0  0  0  0  0  0  0  0  0  0
   12.2951  -17.5673    0.0000 H   0  0  0  0  0  0  0  0  0  0  0  0
   22.8798  -10.7483    0.0000 H   0  0  0  0  0  0  0  0  0  0  0  0
   21.0266  -10.7483    0.0000 H   0  0  0  0  0  0  0  0  0  0  0  0
   21.9532  -10.2133    0.0000 H   0  0  0  0  0  0  0  0  0  0  0  0
   24.1725  -18.4939    0.0000 H   0  0  0  0  0  0  0  0  0  0  0  0
   24.1725  -16.6407    0.0000 H   0  0  0  0  0  0  0  0  0  0  0  0
   24.7075  -17.5673    0.0000 H   0  0  0  0  0  0  0  0  0  0  0  0
  1  2  2  0  0  0  0
  1  3  1  0  0  0  0
  1  4  1  0  0  0  0
  1  9  1  0  0  0  0
  3  5  1  0  0  0  0
  4  7  1  0  0  0  0
  5  6  1  0  0  0  0
  5 25  1  0  0  0  0
  5 26  1  0  0  0  0
  6 22  1  0  0  0  0
  6 27  1  0  0  0  0
  6 28  1  0  0  0  0
  7  8  1  0  0  0  0
  7 29  1  0  0  0  0
  7 30  1  0  0  0  0
  8 21  1  0  0  0  0
  8 31  1  0  0  0  0
  8 32  1  0  0  0  0
  9 10  1  0  0  0  0
  9 18  1  0  0  0  0
  9 33  1  0  0  0  0
 10 11  2  0  0  0  0
 10 12  1  0  0  0  0
 10 13  1  0  0  0  0
 12 14  1  0  0  0  0
 13 16  1  0  0  0  0
 14 15  1  0  0  0  0
 14 34  1  0  0  0  0
 14 35  1  0  0  0  0
 15 24  1  0  0  0  0
 15 36  1  0  0  0  0
 15 37  1  0  0  0  0
 16 17  1  0  0  0  0
 16 38  1  0  0  0  0
 16 39  1  0  0  0  0
 17 23  1  0  0  0  0
 17 40  1  0  0  0  0
 17 41  1  0  0  0  0
 18 19  1  0  0  0  0
 18 20  1  0  0  0  0
 19 42  1  0  0  0  0
 19 43  1  0  0  0  0
 19 44  1  0  0  0  0
 20 45  1  0  0  0  0
 20 46  1  0  0  0  0
 20 47  1  0  0  0  0
 21 48  1  0  0  0  0
 21 49  1  0  0  0  0
 21 50  1  0  0  0  0
 22 51  1  0  0  0  0
 22 52  1  0  0  0  0
 22 53  1  0  0  0  0
 23 54  1  0  0  0  0
 23 55  1  0  0  0  0
 23 56  1  0  0  0  0
 24 57  1  0  0  0  0
 24 58  1  0  0  0  0
 24 59  1  0  0  0  0
M  END
> <NMREDATA_VERSION>
1.1

> <NMREDATA_LEVEL>
0

> <NMREDATA_SOLVENT>
CDCl3

> <NMREDATA_FORMULA>
C15H35NO6P2

> <NMREDATA_SMILES>
CCCOP(=O)(C(P(=O)(OCCC)OCCC)N(C)C)OCCC

> <NMREDATA_ASSIGNMENT>
P1, 18.08, 1
P10, 18.08, 10

> <NMREDATA_1D_31P>
18.08, L=P1
18.08, L=P10

$$$$
