
 OpenBabel08102311382D

 72 71  0  0  0  0  0  0  0  0999 V2000
    7.2589  -12.3225    0.0000 P   0  0  0  0  0  0  0  0  0  0  0  0
    7.2108  -10.0631    0.0000 O   0  0  0  0  0  0  0  0  0  0  0  0
    5.8648  -10.8163    0.0000 O   0  0  0  0  0  0  0  0  0  0  0  0
    5.8167  -13.1237    0.0000 O   0  0  0  0  0  0  0  0  0  0  0  0
    3.5574   -8.7652    0.0000 C   0  0  0  0  0  0  0  0  0  0  0  0
    3.2529   -9.6145    0.0000 C   0  0  0  0  0  0  0  0  0  0  0  0
    4.2624  -14.0211    0.0000 C   0  0  0  0  0  0  0  0  0  0  0  0
    3.4131  -12.6270    0.0000 C   0  0  0  0  0  0  0  0  0  0  0  0
    8.4127  -11.7617    0.0000 C   0  0  0  0  0  0  0  0  0  0  0  0
    9.6625  -12.3706    0.0000 C   0  0  0  0  0  0  0  0  0  0  0  0
   10.8643  -11.5694    0.0000 C   0  0  0  0  0  0  0  0  0  0  0  0
   11.8258  -12.3706    0.0000 C   0  0  0  0  0  0  0  0  0  0  0  0
   12.6270  -11.4252    0.0000 C   0  0  0  0  0  0  0  0  0  0  0  0
   13.8769  -12.2745    0.0000 C   0  0  0  0  0  0  0  0  0  0  0  0
   14.8223  -11.3130    0.0000 C   0  0  0  0  0  0  0  0  0  0  0  0
   16.5208  -12.5148    0.0000 C   0  0  0  0  0  0  0  0  0  0  0  0
   18.3796  -11.5213    0.0000 C   0  0  0  0  0  0  0  0  0  0  0  0
   19.8378  -12.3225    0.0000 C   0  0  0  0  0  0  0  0  0  0  0  0
   21.3281  -11.1688    0.0000 C   0  0  0  0  0  0  0  0  0  0  0  0
   23.8439  -12.5148    0.0000 C   0  0  0  0  0  0  0  0  0  0  0  0
   31.2470  -12.3706    0.0000 P   0  0  0  0  0  0  0  0  0  0  0  0
   30.7503   -9.8708    0.0000 O   0  0  0  0  0  0  0  0  0  0  0  0
   32.8013   -9.9189    0.0000 O   0  0  0  0  0  0  0  0  0  0  0  0
   32.8013  -13.5724    0.0000 O   0  0  0  0  0  0  0  0  0  0  0  0
   33.1539   -8.3646    0.0000 C   0  0  0  0  0  0  0  0  0  0  0  0
   33.6987   -9.3100    0.0000 C   0  0  0  0  0  0  0  0  0  0  0  0
   33.4583  -12.5629    0.0000 C   0  0  0  0  0  0  0  0  0  0  0  0
   33.6987  -13.1237    0.0000 C   0  0  0  0  0  0  0  0  0  0  0  0
    3.2927   -7.7284    0.0000 H   0  0  0  0  0  0  0  0  0  0  0  0
    2.4886   -8.7148    0.0000 H   0  0  0  0  0  0  0  0  0  0  0  0
    2.2001   -9.8054    0.0000 H   0  0  0  0  0  0  0  0  0  0  0  0
    3.9446  -10.4308    0.0000 H   0  0  0  0  0  0  0  0  0  0  0  0
    2.8918  -10.6217    0.0000 H   0  0  0  0  0  0  0  0  0  0  0  0
    3.9977  -15.0578    0.0000 H   0  0  0  0  0  0  0  0  0  0  0  0
    3.2042  -14.1795    0.0000 H   0  0  0  0  0  0  0  0  0  0  0  0
    3.9261  -11.6880    0.0000 H   0  0  0  0  0  0  0  0  0  0  0  0
    2.3434  -12.6522    0.0000 H   0  0  0  0  0  0  0  0  0  0  0  0
    2.8564  -11.7132    0.0000 H   0  0  0  0  0  0  0  0  0  0  0  0
    8.4132  -10.6917    0.0000 H   0  0  0  0  0  0  0  0  0  0  0  0
    9.3201  -11.1947    0.0000 H   0  0  0  0  0  0  0  0  0  0  0  0
    9.7345  -13.4382    0.0000 H   0  0  0  0  0  0  0  0  0  0  0  0
   10.6223  -12.8435    0.0000 H   0  0  0  0  0  0  0  0  0  0  0  0
   10.9214  -10.5009    0.0000 H   0  0  0  0  0  0  0  0  0  0  0  0
   11.8450  -11.1415    0.0000 H   0  0  0  0  0  0  0  0  0  0  0  0
   11.9183  -13.4366    0.0000 H   0  0  0  0  0  0  0  0  0  0  0  0
   12.8454  -12.6952    0.0000 H   0  0  0  0  0  0  0  0  0  0  0  0
   12.4825  -10.3650    0.0000 H   0  0  0  0  0  0  0  0  0  0  0  0
   13.5366  -10.8616    0.0000 H   0  0  0  0  0  0  0  0  0  0  0  0
   13.9821  -13.3393    0.0000 H   0  0  0  0  0  0  0  0  0  0  0  0
   14.8859  -12.6305    0.0000 H   0  0  0  0  0  0  0  0  0  0  0  0
   14.7272  -10.2472    0.0000 H   0  0  0  0  0  0  0  0  0  0  0  0
   15.7498  -10.7795    0.0000 H   0  0  0  0  0  0  0  0  0  0  0  0
   16.4540  -13.5827    0.0000 H   0  0  0  0  0  0  0  0  0  0  0  0
   17.4209  -13.0933    0.0000 H   0  0  0  0  0  0  0  0  0  0  0  0
   18.3858  -10.4513    0.0000 H   0  0  0  0  0  0  0  0  0  0  0  0
   19.3021  -10.9792    0.0000 H   0  0  0  0  0  0  0  0  0  0  0  0
   19.9214  -13.3892    0.0000 H   0  0  0  0  0  0  0  0  0  0  0  0
   20.8161  -12.7558    0.0000 H   0  0  0  0  0  0  0  0  0  0  0  0
   21.2386  -10.1026    0.0000 H   0  0  0  0  0  0  0  0  0  0  0  0
   22.2222  -10.5809    0.0000 H   0  0  0  0  0  0  0  0  0  0  0  0
   23.5938  -13.5552    0.0000 H   0  0  0  0  0  0  0  0  0  0  0  0
   24.5144  -13.3487    0.0000 H   0  0  0  0  0  0  0  0  0  0  0  0
   32.9942   -7.3066    0.0000 H   0  0  0  0  0  0  0  0  0  0  0  0
   34.1640   -8.0115    0.0000 H   0  0  0  0  0  0  0  0  0  0  0  0
   33.1629  -10.2362    0.0000 H   0  0  0  0  0  0  0  0  0  0  0  0
   34.7687   -9.3109    0.0000 H   0  0  0  0  0  0  0  0  0  0  0  0
   34.2329  -10.2371    0.0000 H   0  0  0  0  0  0  0  0  0  0  0  0
   33.5502  -11.4969    0.0000 H   0  0  0  0  0  0  0  0  0  0  0  0
   34.5147  -12.3930    0.0000 H   0  0  0  0  0  0  0  0  0  0  0  0
   33.0578  -13.9805    0.0000 H   0  0  0  0  0  0  0  0  0  0  0  0
   34.7612  -13.2503    0.0000 H   0  0  0  0  0  0  0  0  0  0  0  0
   34.1203  -14.1071    0.0000 H   0  0  0  0  0  0  0  0  0  0  0  0
  1  2  2  0  0  0  0
  1  3  1  0  0  0  0
  1  4  1  0  0  0  0
  1  9  1  0  0  0  0
  3  5  1  0  0  0  0
  4  7  1  0  0  0  0
  5  6  1  0  0  0  0
  5 29  1  0  0  0  0
  5 30  1  0  0  0  0
  6 31  1  0  0  0  0
  6 32  1  0  0  0  0
  6 33  1  0  0  0  0
  7  8  1  0  0  0  0
  7 34  1  0  0  0  0
  7 35  1  0  0  0  0
  8 36  1  0  0  0  0
  8 37  1  0  0  0  0
  8 38  1  0  0  0  0
  9 10  1  0  0  0  0
  9 39  1  0  0  0  0
  9 40  1  0  0  0  0
 10 11  1  0  0  0  0
 10 41  1  0  0  0  0
 10 42  1  0  0  0  0
 11 12  1  0  0  0  0
 11 43  1  0  0  0  0
 11 44  1  0  0  0  0
 12 13  1  0  0  0  0
 12 45  1  0  0  0  0
 12 46  1  0  0  0  0
 13 14  1  0  0  0  0
 13 47  1  0  0  0  0
 13 48  1  0  0  0  0
 14 15  1  0  0  0  0
 14 49  1  0  0  0  0
 14 50  1  0  0  0  0
 15 16  1  0  0  0  0
 15 51  1  0  0  0  0
 15 52  1  0  0  0  0
 16 17  1  0  0  0  0
 16 53  1  0  0  0  0
 16 54  1  0  0  0  0
 17 18  1  0  0  0  0
 17 55  1  0  0  0  0
 17 56  1  0  0  0  0
 18 19  1  0  0  0  0
 18 57  1  0  0  0  0
 18 58  1  0  0  0  0
 19 20  1  0  0  0  0
 19 59  1  0  0  0  0
 19 60  1  0  0  0  0
 20 21  1  0  0  0  0
 20 61  1  0  0  0  0
 20 62  1  0  0  0  0
 21 22  2  0  0  0  0
 21 23  1  0  0  0  0
 21 24  1  0  0  0  0
 23 25  1  0  0  0  0
 24 27  1  0  0  0  0
 25 26  1  0  0  0  0
 25 63  1  0  0  0  0
 25 64  1  0  0  0  0
 26 65  1  0  0  0  0
 26 66  1  0  0  0  0
 26 67  1  0  0  0  0
 27 28  1  0  0  0  0
 27 68  1  0  0  0  0
 27 69  1  0  0  0  0
 28 70  1  0  0  0  0
 28 71  1  0  0  0  0
 28 72  1  0  0  0  0
M  END
> <NMREDATA_VERSION>
1.1

> <NMREDATA_LEVEL>
0

> <NMREDATA_SOLVENT>
CDCl3

> <NMREDATA_FORMULA>
C20H44O6P2

> <NMREDATA_SMILES>
CCOP(=O)(OCC)CCCCCCCCCCCCP(=O)(OCC)OCC

> <NMREDATA_ASSIGNMENT>
P1, 33.60, 1
P21, 33.60, 21

> <NMREDATA_1D_31P>
33.60, L=P1
33.60, L=P21

$$$$
