
 OpenBabel08102311372D

 45 47  0  0  0  0  0  0  0  0999 V2000
   17.8630   -5.3800    0.0000 C   0  0  0  0  0  0  0  0  0  0  0  0
   16.7199   -6.0400    0.0000 C   0  0  0  0  0  0  0  0  0  0  0  0
   17.8669   -4.0576    0.0000 C   0  0  0  0  0  0  0  0  0  0  0  0
   15.5725   -5.3822    0.0000 C   0  0  0  0  0  0  0  0  0  0  0  0
   16.7153   -3.3921    0.0000 C   0  0  0  0  0  0  0  0  0  0  0  0
   15.5721   -4.0522    0.0000 C   0  0  0  0  0  0  0  0  0  0  0  0
   18.8497   -6.2735    0.0000 N   0  0  0  0  0  0  0  0  0  0  0  0
   18.3189   -7.4803    0.0000 C   0  0  0  0  0  0  0  0  0  0  0  0
   16.9928   -7.3456    0.0000 N   0  0  0  0  0  0  0  0  0  0  0  0
   18.9790   -8.6238    0.0000 N   0  0  0  0  0  0  0  0  0  0  0  0
   20.3009   -8.6278    0.0000 C   0  0  0  0  0  0  0  0  0  0  0  0
   20.9655   -9.7790    0.0000 N   0  0  0  0  0  0  0  0  0  0  0  0
   20.9589   -7.4807    0.0000 C   0  0  0  0  0  0  0  0  0  0  0  0
   22.2880   -9.7829    0.0000 C   0  0  0  0  0  0  0  0  0  0  0  0
   22.9533   -8.6313    0.0000 C   0  0  0  0  0  0  0  0  0  0  0  0
   22.9526  -10.9341    0.0000 C   0  0  0  0  0  0  0  0  0  0  0  0
   24.2832   -8.6310    0.0000 C   0  0  0  0  0  0  0  0  0  0  0  0
   24.2827  -10.9337    0.0000 N   0  0  0  0  0  0  0  0  0  0  0  0
   24.9478   -9.7823    0.0000 C   0  0  0  0  0  0  0  0  0  0  0  0
   16.1068   -8.3280    0.0000 P   0  3  3  0  0  0  0  0  0  0  0  0
   14.8042   -8.0568    0.0000 O   0  0  0  0  0  0  0  0  0  0  0  0
   16.5078   -9.5897    0.0000 N   0  0  0  0  0  0  0  0  0  0  0  0
   17.8149   -9.8687    0.0000 C   0  0  0  0  0  0  0  0  0  0  0  0
   15.6264  -10.5794    0.0000 C   0  0  0  0  0  0  0  0  0  0  0  0
   22.2887   -7.4800    0.0000 C   0  0  0  0  0  0  0  0  0  0  0  0
   18.7615   -3.5431    0.0000 H   0  0  0  0  0  0  0  0  0  0  0  0
   14.6796   -5.8997    0.0000 H   0  0  0  0  0  0  0  0  0  0  0  0
   16.7155   -2.3601    0.0000 H   0  0  0  0  0  0  0  0  0  0  0  0
   14.6783   -3.5364    0.0000 H   0  0  0  0  0  0  0  0  0  0  0  0
   20.4720  -10.6309    0.0000 H   0  0  0  0  0  0  0  0  0  0  0  0
   20.4224   -6.5549    0.0000 H   0  0  0  0  0  0  0  0  0  0  0  0
   21.4929   -6.5535    0.0000 H   0  0  0  0  0  0  0  0  0  0  0  0
   22.4373   -7.7375    0.0000 H   0  0  0  0  0  0  0  0  0  0  0  0
   22.4367  -11.8279    0.0000 H   0  0  0  0  0  0  0  0  0  0  0  0
   24.7991   -7.7372    0.0000 H   0  0  0  0  0  0  0  0  0  0  0  0
   25.9798   -9.7824    0.0000 H   0  0  0  0  0  0  0  0  0  0  0  0
   18.1447  -10.8866    0.0000 H   0  0  0  0  0  0  0  0  0  0  0  0
   18.5315   -9.0741    0.0000 H   0  0  0  0  0  0  0  0  0  0  0  0
   18.8613  -10.0921    0.0000 H   0  0  0  0  0  0  0  0  0  0  0  0
   14.5786  -10.3626    0.0000 H   0  0  0  0  0  0  0  0  0  0  0  0
   15.9626  -11.5952    0.0000 H   0  0  0  0  0  0  0  0  0  0  0  0
   14.9148  -11.3785    0.0000 H   0  0  0  0  0  0  0  0  0  0  0  0
   22.8242   -8.4064    0.0000 H   0  0  0  0  0  0  0  0  0  0  0  0
   22.8232   -6.5531    0.0000 H   0  0  0  0  0  0  0  0  0  0  0  0
   23.3587   -7.4794    0.0000 H   0  0  0  0  0  0  0  0  0  0  0  0
  1  3  2  0  0  0  0
  1  7  1  0  0  0  0
  1  2  1  0  0  0  0
  2  4  2  0  0  0  0
  2  9  1  0  0  0  0
  3  5  1  0  0  0  0
  3 26  1  0  0  0  0
  4  6  1  0  0  0  0
  4 27  1  0  0  0  0
  5  6  2  0  0  0  0
  5 28  1  0  0  0  0
  6 29  1  0  0  0  0
  7  8  2  0  0  0  0
  8  9  1  0  0  0  0
  8 10  1  0  0  0  0
  9 20  1  0  0  0  0
 10 11  2  0  0  0  0
 11 12  1  0  0  0  0
 11 13  1  0  0  0  0
 12 14  1  0  0  0  0
 12 30  1  0  0  0  0
 13 25  1  0  0  0  0
 13 31  1  0  0  0  0
 13 32  1  0  0  0  0
 14 15  1  0  0  0  0
 14 16  2  0  0  0  0
 15 17  2  0  0  0  0
 15 33  1  0  0  0  0
 16 18  1  0  0  0  0
 16 34  1  0  0  0  0
 17 19  1  0  0  0  0
 17 35  1  0  0  0  0
 18 19  2  0  0  0  0
 19 36  1  0  0  0  0
 20 21  2  0  0  0  0
 20 22  1  0  0  0  0
 22 23  1  0  0  0  0
 22 24  1  0  0  0  0
 23 37  1  0  0  0  0
 23 38  1  0  0  0  0
 23 39  1  0  0  0  0
 24 40  1  0  0  0  0
 24 41  1  0  0  0  0
 24 42  1  0  0  0  0
 25 43  1  0  0  0  0
 25 44  1  0  0  0  0
 25 45  1  0  0  0  0
M  END
> <NMREDATA_VERSION>
1.1

> <NMREDATA_LEVEL>
0

> <NMREDATA_SOLVENT>
CDCl3

> <NMREDATA_FORMULA>
C17H20N6OP+

> <NMREDATA_SMILES>
CC/C(=N\c1nc2c(n1[P+](=O)N(C)C)cccc2)/Nc1cccnc1

> <NMREDATA_ASSIGNMENT>
P20, 12.68, 20

> <NMREDATA_1D_31P>
12.68, L=P20

$$$$
