
 OpenBabel08102311372D

 72 72  0  0  0  0  0  0  0  0999 V2000
   15.6686  -13.7454    0.0000 P    0  5  0  0  0  0  0  0  0  0  0  0
   16.8139  -15.3823    0.0000 S    0  0  0  0  0  0  0  0  0  0  0  0
   18.4390  -14.2433    0.0000 As   0  0  0  0  0  0  0  0  0  0  0  0
   17.3116  -12.6115    0.0000 S    0  0  0  0  0  0  0  0  0  0  0  0
   20.4179  -14.5975    0.0000 B    0  0  0  0  0  0  0  0  0  0  0  0
   19.8307  -15.6920    0.0000 O    0  0  0  0  0  0  0  0  0  0  0  0
   20.2482  -13.3685    0.0000 O    0  0  0  0  0  0  0  0  0  0  0  0
   21.7082  -13.0655    0.0000 O    0  0  0  0  0  0  0  0  0  0  0  0
   21.4081  -16.3395    0.0000 O    0  0  0  0  0  0  0  0  0  0  0  0
   23.2870  -17.0291    0.0000 C    0  0  0  0  0  0  0  0  0  0  0  0
   25.1731  -16.3412    0.0000 C    0  0  0  0  0  0  0  0  0  0  0  0
   23.6388  -19.0008    0.0000 C    0  0  0  0  0  0  0  0  0  0  0  0
   23.6755  -13.4264    0.0000 C    0  0  0  0  0  0  0  0  0  0  0  0
   24.0269  -15.3983    0.0000 C    0  0  0  0  0  0  0  0  0  0  0  0
   25.2139  -12.1372    0.0000 C    0  0  0  0  0  0  0  0  0  0  0  0
   13.8710  -14.6134    0.0000 S    0  0  0  0  0  0  0  0  0  0  0  0
   14.2769  -12.2966    0.0000 O    0  0  0  0  0  0  0  0  0  0  0  0
   13.7016  -13.3849    0.0000 O    0  0  0  0  0  0  0  0  0  0  0  0
   12.3994  -14.9232    0.0000 C    0  0  0  0  0  0  0  0  0  0  0  0
   10.4324  -14.5627    0.0000 C    0  0  0  0  0  0  0  0  0  0  0  0
    9.1418  -16.0943    0.0000 C    0  0  0  0  0  0  0  0  0  0  0  0
   14.8499  -10.3767    0.0000 C    0  0  0  0  0  0  0  0  0  0  0  0
   13.4581   -8.9280    0.0000 C    0  0  0  0  0  0  0  0  0  0  0  0
   14.0010   -7.0105    0.0000 C    0  0  0  0  0  0  0  0  0  0  0  0
   19.2761  -17.6169    0.0000 C    0  0  0  0  0  0  0  0  0  0  0  0
   17.3417  -18.0860    0.0000 C    0  0  0  0  0  0  0  0  0  0  0  0
   20.6495  -19.0607    0.0000 C    0  0  0  0  0  0  0  0  0  0  0  0
   20.3989  -11.3849    0.0000 C    0  0  0  0  0  0  0  0  0  0  0  0
   18.7448  -10.2569    0.0000 C    0  0  0  0  0  0  0  0  0  0  0  0
   22.2074  -10.5100    0.0000 C    0  0  0  0  0  0  0  0  0  0  0  0
   24.2144  -17.5629    0.0000 H    0  0  0  0  0  0  0  0  0  0  0  0
   25.9932  -17.0284    0.0000 H    0  0  0  0  0  0  0  0  0  0  0  0
   25.3582  -15.2873    0.0000 H    0  0  0  0  0  0  0  0  0  0  0  0
   26.1783  -15.9746    0.0000 H    0  0  0  0  0  0  0  0  0  0  0  0
   22.8205  -19.6902    0.0000 H    0  0  0  0  0  0  0  0  0  0  0  0
   24.6450  -19.3647    0.0000 H    0  0  0  0  0  0  0  0  0  0  0  0
   23.8267  -20.0542    0.0000 H    0  0  0  0  0  0  0  0  0  0  0  0
   24.6812  -13.7918    0.0000 H    0  0  0  0  0  0  0  0  0  0  0  0
   23.2085  -16.0876    0.0000 H    0  0  0  0  0  0  0  0  0  0  0  0
   25.0330  -15.7624    0.0000 H    0  0  0  0  0  0  0  0  0  0  0  0
   24.2146  -16.4517    0.0000 H    0  0  0  0  0  0  0  0  0  0  0  0
   26.2191  -12.5038    0.0000 H    0  0  0  0  0  0  0  0  0  0  0  0
   25.0288  -11.0833    0.0000 H    0  0  0  0  0  0  0  0  0  0  0  0
   26.0340  -11.4499    0.0000 H    0  0  0  0  0  0  0  0  0  0  0  0
   12.7598  -15.9307    0.0000 H    0  0  0  0  0  0  0  0  0  0  0  0
   11.7066  -15.7386    0.0000 H    0  0  0  0  0  0  0  0  0  0  0  0
   10.0709  -13.5556    0.0000 H    0  0  0  0  0  0  0  0  0  0  0  0
    9.3793  -14.3735    0.0000 H    0  0  0  0  0  0  0  0  0  0  0  0
    8.0884  -15.9063    0.0000 H    0  0  0  0  0  0  0  0  0  0  0  0
    9.5057  -17.1005    0.0000 H    0  0  0  0  0  0  0  0  0  0  0  0
    8.4523  -16.9125    0.0000 H    0  0  0  0  0  0  0  0  0  0  0  0
   15.8898  -10.1248    0.0000 H    0  0  0  0  0  0  0  0  0  0  0  0
   15.1496   -9.3495    0.0000 H    0  0  0  0  0  0  0  0  0  0  0  0
   12.4200   -9.1873    0.0000 H    0  0  0  0  0  0  0  0  0  0  0  0
   12.7134   -8.1597    0.0000 H    0  0  0  0  0  0  0  0  0  0  0  0
   15.0383   -6.7482    0.0000 H    0  0  0  0  0  0  0  0  0  0  0  0
   13.2551   -6.2433    0.0000 H    0  0  0  0  0  0  0  0  0  0  0  0
   14.2925   -5.9810    0.0000 H    0  0  0  0  0  0  0  0  0  0  0  0
   18.9740  -18.6434    0.0000 H    0  0  0  0  0  0  0  0  0  0  0  0
   16.6034  -17.3115    0.0000 H    0  0  0  0  0  0  0  0  0  0  0  0
   17.0402  -19.1126    0.0000 H    0  0  0  0  0  0  0  0  0  0  0  0
   16.3018  -18.3382    0.0000 H    0  0  0  0  0  0  0  0  0  0  0  0
   20.3468  -20.0870    0.0000 H    0  0  0  0  0  0  0  0  0  0  0  0
   21.6896  -18.8097    0.0000 H    0  0  0  0  0  0  0  0  0  0  0  0
   21.3870  -19.8360    0.0000 H    0  0  0  0  0  0  0  0  0  0  0  0
   20.4780  -10.3178    0.0000 H    0  0  0  0  0  0  0  0  0  0  0  0
   18.8249   -9.1899    0.0000 H    0  0  0  0  0  0  0  0  0  0  0  0
   17.7807  -10.7211    0.0000 H    0  0  0  0  0  0  0  0  0  0  0  0
   17.8608   -9.6541    0.0000 H    0  0  0  0  0  0  0  0  0  0  0  0
   23.0925  -11.1112    0.0000 H    0  0  0  0  0  0  0  0  0  0  0  0
   22.2855   -9.4429    0.0000 H    0  0  0  0  0  0  0  0  0  0  0  0
   23.1706  -10.0440    0.0000 H    0  0  0  0  0  0  0  0  0  0  0  0
  1  2  1  0  0  0  0
  1  4  1  0  0  0  0
  1 16  2  0  0  0  0
  1 17  1  0  0  0  0
  1 18  1  0  0  0  0
  2  3  1  0  0  0  0
  3  5  1  0  0  0  0
  3  6  1  0  0  0  0
  3  7  1  0  0  0  0
  4  3  1  0  0  0  0
  5  8  1  0  0  0  0
  5  9  1  0  0  0  0
  6 25  1  0  0  0  0
  7 28  1  0  0  0  0
  8 13  1  0  0  0  0
  9 10  1  0  0  0  0
 10 11  1  0  0  0  0
 10 12  1  0  0  0  0
 10 31  1  0  0  0  0
 11 32  1  0  0  0  0
 11 33  1  0  0  0  0
 11 34  1  0  0  0  0
 12 35  1  0  0  0  0
 12 36  1  0  0  0  0
 12 37  1  0  0  0  0
 13 14  1  0  0  0  0
 13 15  1  0  0  0  0
 13 38  1  0  0  0  0
 14 39  1  0  0  0  0
 14 40  1  0  0  0  0
 14 41  1  0  0  0  0
 15 42  1  0  0  0  0
 15 43  1  0  0  0  0
 15 44  1  0  0  0  0
 17 22  1  0  0  0  0
 18 19  1  0  0  0  0
 19 20  1  0  0  0  0
 19 45  1  0  0  0  0
 19 46  1  0  0  0  0
 20 21  1  0  0  0  0
 20 47  1  0  0  0  0
 20 48  1  0  0  0  0
 21 49  1  0  0  0  0
 21 50  1  0  0  0  0
 21 51  1  0  0  0  0
 22 23  1  0  0  0  0
 22 52  1  0  0  0  0
 22 53  1  0  0  0  0
 23 24  1  0  0  0  0
 23 54  1  0  0  0  0
 23 55  1  0  0  0  0
 24 56  1  0  0  0  0
 24 57  1  0  0  0  0
 24 58  1  0  0  0  0
 25 26  1  0  0  0  0
 25 27  1  0  0  0  0
 25 59  1  0  0  0  0
 26 60  1  0  0  0  0
 26 61  1  0  0  0  0
 26 62  1  0  0  0  0
 27 63  1  0  0  0  0
 27 64  1  0  0  0  0
 27 65  1  0  0  0  0
 28 29  1  0  0  0  0
 28 30  1  0  0  0  0
 28 66  1  0  0  0  0
 29 67  1  0  0  0  0
 29 68  1  0  0  0  0
 29 69  1  0  0  0  0
 30 70  1  0  0  0  0
 30 71  1  0  0  0  0
 30 72  1  0  0  0  0
M  END
> <NMREDATA_VERSION>
1.1

> <NMREDATA_LEVEL>
0

> <NMREDATA_SOLVENT>
CDCl3

> <NMREDATA_FORMULA>
C18H42AsBO6PS3

> <NMREDATA_SMILES>
CCCO[P-]1(=S)(OCCC)S[As](S1)(OC(C)C)(OC(C)C)B(OC(C)C)OC(C)C

> <NMREDATA_ASSIGNMENT>
P1, 90.21, 1

> <NMREDATA_1D_31P>
90.21, L=P1

$$$$
