
 OpenBabel08102311382D

 46 48  0  0  0  0  0  0  0  0999 V2000
   10.9475  -10.3452    0.0000 C   0  0  0  0  0  0  0  0  0  0  0  0
   11.1746  -11.6533    0.0000 C   0  0  0  0  0  0  0  0  0  0  0  0
    9.6962   -9.8888    0.0000 C   0  0  0  0  0  0  0  0  0  0  0  0
   10.1629  -12.5015    0.0000 C   0  0  0  0  0  0  0  0  0  0  0  0
    8.6799  -10.7451    0.0000 N   0  0  0  0  0  0  0  0  0  0  0  0
    8.9119  -12.0453    0.0000 C   0  0  0  0  0  0  0  0  0  0  0  0
   12.4215  -12.1173    0.0000 C   0  0  3  0  0  0  0  0  0  0  0  0
   13.4376  -11.2609    0.0000 P   0  5  0  0  0  0  0  0  0  0  0  0
   12.3207  -10.5548    0.0000 O   0  0  0  0  0  0  0  0  0  0  0  0
   13.9353  -12.4898    0.0000 O   0  0  0  0  0  0  0  0  0  0  0  0
   13.7612   -9.9741    0.0000 O   0  0  0  0  0  0  0  0  0  0  0  0
   14.7614  -11.1658    0.0000 O   0  0  0  0  0  0  0  0  0  0  0  0
   12.6454  -13.4128    0.0000 N   0  0  0  0  0  0  0  0  0  0  0  0
   13.7966  -14.0774    0.0000 C   0  0  0  0  0  0  0  0  0  0  0  0
   14.9437  -13.4199    0.0000 C   0  0  0  0  0  0  0  0  0  0  0  0
   16.0950  -14.0846    0.0000 C   0  0  0  0  0  0  0  0  0  0  0  0
   14.9441  -12.0899    0.0000 C   0  0  0  0  0  0  0  0  0  0  0  0
   17.2468  -13.4194    0.0000 C   0  0  0  0  0  0  0  0  0  0  0  0
   16.0959  -11.4244    0.0000 C   0  0  0  0  0  0  0  0  0  0  0  0
   17.2471  -12.0890    0.0000 C   0  0  0  0  0  0  0  0  0  0  0  0
   14.9472  -17.4025    0.0000 C   0  0  0  0  0  0  0  0  0  0  0  0
   13.7996  -18.0603    0.0000 C   0  0  0  0  0  0  0  0  0  0  0  0
   14.9473  -16.0723    0.0000 C   0  0  0  0  0  0  0  0  0  0  0  0
   12.6483  -17.3957    0.0000 C   0  0  0  0  0  0  0  0  0  0  0  0
   13.7961  -15.4077    0.0000 C   0  0  0  0  0  0  0  0  0  0  0  0
   12.6445  -16.0730    0.0000 C   0  0  0  0  0  0  0  0  0  0  0  0
   11.7392   -9.6832    0.0000 H   0  0  0  0  0  0  0  0  0  0  0  0
    9.5163   -8.8726    0.0000 H   0  0  0  0  0  0  0  0  0  0  0  0
   10.3416  -13.5179    0.0000 H   0  0  0  0  0  0  0  0  0  0  0  0
    8.1218  -12.7092    0.0000 H   0  0  0  0  0  0  0  0  0  0  0  0
   12.2383  -11.0631    0.0000 H   0  0  0  0  0  0  0  0  0  0  0  0
   13.3387  -13.2547    0.0000 H   0  0  0  0  0  0  0  0  0  0  0  0
   14.6942   -9.7086    0.0000 H   0  0  0  0  0  0  0  0  0  0  0  0
   15.3053  -11.9689    0.0000 H   0  0  0  0  0  0  0  0  0  0  0  0
   11.8089  -13.9964    0.0000 H   0  0  0  0  0  0  0  0  0  0  0  0
   14.7223  -14.6140    0.0000 H   0  0  0  0  0  0  0  0  0  0  0  0
   16.0951  -15.1166    0.0000 H   0  0  0  0  0  0  0  0  0  0  0  0
   14.0504  -11.5739    0.0000 H   0  0  0  0  0  0  0  0  0  0  0  0
   18.1405  -13.9354    0.0000 H   0  0  0  0  0  0  0  0  0  0  0  0
   16.0957  -10.3924    0.0000 H   0  0  0  0  0  0  0  0  0  0  0  0
   18.1409  -11.5731    0.0000 H   0  0  0  0  0  0  0  0  0  0  0  0
   15.8401  -17.9199    0.0000 H   0  0  0  0  0  0  0  0  0  0  0  0
   13.7980  -19.0923    0.0000 H   0  0  0  0  0  0  0  0  0  0  0  0
   15.8410  -15.5563    0.0000 H   0  0  0  0  0  0  0  0  0  0  0  0
   11.7553  -17.9130    0.0000 H   0  0  0  0  0  0  0  0  0  0  0  0
   11.7500  -15.5584    0.0000 H   0  0  0  0  0  0  0  0  0  0  0  0
  1  2  1  0  0  0  0
  1  3  2  0  0  0  0
  1 27  1  0  0  0  0
  2  4  2  0  0  0  0
  2  7  1  0  0  0  0
  3  5  1  0  0  0  0
  3 28  1  0  0  0  0
  4  6  1  0  0  0  0
  4 29  1  0  0  0  0
  5  6  2  0  0  0  0
  6 30  1  0  0  0  0
  7  8  1  0  0  0  0
  7 13  1  0  0  0  0
  7 31  1  0  0  0  0
  8  9  2  0  0  0  0
  8 10  1  0  0  0  0
  8 11  1  0  0  0  0
  8 12  1  0  0  0  0
 10 32  1  0  0  0  0
 11 33  1  0  0  0  0
 12 34  1  0  0  0  0
 13 14  1  0  0  0  0
 13 35  1  0  0  0  0
 14 15  1  0  0  0  0
 14 25  1  0  0  0  0
 14 36  1  0  0  0  0
 15 16  1  0  0  0  0
 15 17  2  0  0  0  0
 16 18  2  0  0  0  0
 16 37  1  0  0  0  0
 17 19  1  0  0  0  0
 17 38  1  0  0  0  0
 18 20  1  0  0  0  0
 18 39  1  0  0  0  0
 19 20  2  0  0  0  0
 19 40  1  0  0  0  0
 20 41  1  0  0  0  0
 21 22  1  0  0  0  0
 21 23  2  0  0  0  0
 21 42  1  0  0  0  0
 22 24  2  0  0  0  0
 22 43  1  0  0  0  0
 23 25  1  0  0  0  0
 23 44  1  0  0  0  0
 24 26  1  0  0  0  0
 24 45  1  0  0  0  0
 25 26  2  0  0  0  0
 26 46  1  0  0  0  0
M  END
> <NMREDATA_VERSION>
1.1

> <NMREDATA_LEVEL>
0

> <NMREDATA_SOLVENT>
D2O

> <NMREDATA_FORMULA>
C19H20N2O4P-

> <NMREDATA_SMILES>
O[P-](=O)(C(c1ccncc1)NC(c1ccccc1)c1ccccc1)(O)O

> <NMREDATA_ASSIGNMENT>
P8, 5.12, 8

> <NMREDATA_1D_31P>
5.12, L=P8

$$$$
