
 OpenBabel08102311383D

 67 70  0  0  1  0  0  0  0  0999 V2000
   16.2781   -9.5159    0.0000 O   0  0  0  0  0  0  0  0  0  0  0  0
   17.3548   -8.7351    0.0000 C   0  0  0  0  0  0  0  0  0  0  0  0
   16.6880  -10.7812    0.0000 P   0  0  1  0  0  0  0  0  0  0  0  0
   18.4301   -9.5178    0.0000 C   0  0  0  0  0  0  0  0  0  0  0  0
   18.0182  -10.7823    0.0000 N   0  0  3  0  0  0  0  0  0  0  0  0
   16.2759  -12.0458    0.0000 S   0  3  0  0  0  0  0  0  0  0  0  0
   17.3514  -12.8286    0.0000 C   0  0  3  0  0  0  0  0  0  0  0  0
   18.4282  -12.0478    0.0000 C   0  0  0  0  0  0  0  0  0  0  0  0
   14.8223   -9.8228    0.0000 O   0  0  0  0  0  0  0  0  0  0  0  0
   14.3736   -7.7076    0.0000 C   0  0  0  0  0  0  0  0  0  0  0  0
   13.2680   -7.7076    0.0000 C   0  0  0  0  0  0  0  0  0  0  0  0
    7.6571   -9.7562    0.0000 C   0  0  0  0  0  0  0  0  0  0  0  0
    8.7338   -8.9754    0.0000 C   0  0  0  0  0  0  0  0  0  0  0  0
    8.0670  -11.0215    0.0000 N   0  0  3  0  0  0  0  0  0  0  0  0
    9.8091   -9.7581    0.0000 O   0  0  0  0  0  0  0  0  0  0  0  0
    9.3972  -11.0227    0.0000 P   0  0  1  0  0  0  0  0  0  0  0  0
    7.6550  -12.2862    0.0000 C   0  0  0  0  0  0  0  0  0  0  0  0
    8.7304  -13.0689    0.0000 C   0  0  3  0  0  0  0  0  0  0  0  0
    9.8072  -12.2882    0.0000 S   0  3  0  0  0  0  0  0  0  0  0  0
   11.0246   -9.8228    0.0000 O   0  0  0  0  0  0  0  0  0  0  0  0
   11.0727   -8.3646    0.0000 C   0  0  0  0  0  0  0  0  0  0  0  0
   12.1623   -8.0121    0.0000 C   0  0  0  0  0  0  0  0  0  0  0  0
   12.6751   -9.8228    0.0000 O   0  0  0  0  0  0  0  0  0  0  0  0
    7.3070  -14.5178    0.0000 O   0  0  0  0  0  0  0  0  0  0  0  0
   10.2234  -14.4217    0.0000 C   0  0  0  0  0  0  0  0  0  0  0  0
   15.9760  -14.8704    0.0000 C   0  0  0  0  0  0  0  0  0  0  0  0
   18.4277  -14.6300    0.0000 O   0  0  0  0  0  0  0  0  0  0  0  0
   10.3195   -7.5153    0.0000 C   0  0  0  0  0  0  0  0  0  0  0  0
   15.7196   -5.9610    0.0000 C   0  0  0  0  0  0  0  0  0  0  0  0
    6.2654   -5.9129    0.0000 C   0  0  0  0  0  0  0  0  0  0  0  0
   18.9245   -7.3070    0.0000 C   0  0  0  0  0  0  0  0  0  0  0  0
   19.0178   -9.3274    0.8737 H   0  0  0  0  0  0  0  0  0  0  0  0
   19.0316   -9.3229   -0.8632 H   0  0  0  0  0  0  0  0  0  0  0  0
   19.0156  -12.2392    0.8737 H   0  0  0  0  0  0  0  0  0  0  0  0
   19.0295  -12.2438   -0.8631 H   0  0  0  0  0  0  0  0  0  0  0  0
   14.7625   -7.2276   -0.8737 H   0  0  0  0  0  0  0  0  0  0  0  0
   14.8052   -7.1748    0.8214 H   0  0  0  0  0  0  0  0  0  0  0  0
   12.8948   -7.2153   -0.8737 H   0  0  0  0  0  0  0  0  0  0  0  0
   12.8727   -7.1862    0.8466 H   0  0  0  0  0  0  0  0  0  0  0  0
    7.0697   -9.5648   -0.8737 H   0  0  0  0  0  0  0  0  0  0  0  0
    7.0558   -9.5602    0.8631 H   0  0  0  0  0  0  0  0  0  0  0  0
    7.0673  -12.4766   -0.8737 H   0  0  0  0  0  0  0  0  0  0  0  0
    7.0534  -12.4811    0.8632 H   0  0  0  0  0  0  0  0  0  0  0  0
   10.5792   -7.9930    0.8737 H   0  0  0  0  0  0  0  0  0  0  0  0
   10.5820   -7.9951   -0.8761 H   0  0  0  0  0  0  0  0  0  0  0  0
   12.4536   -7.4673    0.8737 H   0  0  0  0  0  0  0  0  0  0  0  0
   12.5287   -7.3268   -0.7355 H   0  0  0  0  0  0  0  0  0  0  0  0
    6.4280  -14.1075    0.0000 H   0  0  0  0  0  0  0  0  0  0  0  0
   11.1651  -13.9136    0.0000 H   0  0  0  0  0  0  0  0  0  0  0  0
   10.1490  -15.0350   -0.8737 H   0  0  0  0  0  0  0  0  0  0  0  0
   10.1490  -15.0350    0.8736 H   0  0  0  0  0  0  0  0  0  0  0  0
   14.9401  -14.6026    0.0000 H   0  0  0  0  0  0  0  0  0  0  0  0
   16.1951  -15.4480    0.8737 H   0  0  0  0  0  0  0  0  0  0  0  0
   16.1951  -15.4480   -0.8736 H   0  0  0  0  0  0  0  0  0  0  0  0
   19.3786  -14.4385    0.0000 H   0  0  0  0  0  0  0  0  0  0  0  0
   11.2652   -8.0158    0.0000 H   0  0  0  0  0  0  0  0  0  0  0  0
   10.2402   -6.9026    0.8737 H   0  0  0  0  0  0  0  0  0  0  0  0
   10.2402   -6.9026   -0.8736 H   0  0  0  0  0  0  0  0  0  0  0  0
   14.6694   -6.1660    0.0000 H   0  0  0  0  0  0  0  0  0  0  0  0
   15.9730   -5.3976   -0.8737 H   0  0  0  0  0  0  0  0  0  0  0  0
   15.9730   -5.3976    0.8736 H   0  0  0  0  0  0  0  0  0  0  0  0
    5.2561   -6.2683    0.0000 H   0  0  0  0  0  0  0  0  0  0  0  0
    6.4343   -5.3187   -0.8737 H   0  0  0  0  0  0  0  0  0  0  0  0
    6.4343   -5.3187    0.8736 H   0  0  0  0  0  0  0  0  0  0  0  0
   19.8672   -7.8132    0.0000 H   0  0  0  0  0  0  0  0  0  0  0  0
   18.8489   -6.6939    0.8737 H   0  0  0  0  0  0  0  0  0  0  0  0
   18.8489   -6.6939   -0.8736 H   0  0  0  0  0  0  0  0  0  0  0  0
  1  2  1  0  0  0  0
  1  3  1  0  0  0  0
  2  4  1  0  0  0  0
  2 29  1  0  0  0  0
  2 31  1  0  0  0  0
  3  6  2  0  0  0  0
  3  5  1  0  0  0  0
  3  9  1  6  0  0  0
  4  5  1  0  0  0  0
  4 32  1  0  0  0  0
  4 33  1  0  0  0  0
  5  8  1  0  0  0  0
  6  7  1  0  0  0  0
  7  8  1  0  0  0  0
  7 26  1  0  0  0  0
  7 27  1  0  0  0  0
  8 34  1  0  0  0  0
  8 35  1  0  0  0  0
  9 10  1  0  0  0  0
 10 11  1  0  0  0  0
 10 36  1  0  0  0  0
 10 37  1  0  0  0  0
 11 23  1  0  0  0  0
 11 38  1  0  0  0  0
 11 39  1  0  0  0  0
 12 13  1  0  0  0  0
 12 14  1  0  0  0  0
 12 40  1  0  0  0  0
 12 41  1  0  0  0  0
 13 15  1  0  0  0  0
 13 28  1  0  0  0  0
 13 30  1  0  0  0  0
 14 17  1  0  0  0  0
 14 16  1  0  0  0  0
 15 16  1  0  0  0  0
 16 19  2  0  0  0  0
 16 20  1  6  0  0  0
 17 18  1  0  0  0  0
 17 42  1  0  0  0  0
 17 43  1  0  0  0  0
 18 19  1  0  0  0  0
 18 24  1  0  0  0  0
 18 25  1  0  0  0  0
 20 21  1  0  0  0  0
 21 22  1  0  0  0  0
 21 44  1  0  0  0  0
 21 45  1  0  0  0  0
 22 23  1  0  0  0  0
 22 46  1  0  0  0  0
 22 47  1  0  0  0  0
 24 48  1  0  0  0  0
 25 49  1  0  0  0  0
 25 50  1  0  0  0  0
 25 51  1  0  0  0  0
 26 52  1  0  0  0  0
 26 53  1  0  0  0  0
 26 54  1  0  0  0  0
 27 55  1  0  0  0  0
 28 56  1  0  0  0  0
 28 57  1  0  0  0  0
 28 58  1  0  0  0  0
 29 59  1  0  0  0  0
 29 60  1  0  0  0  0
 29 61  1  0  0  0  0
 30 62  1  0  0  0  0
 30 63  1  0  0  0  0
 30 64  1  0  0  0  0
 31 65  1  0  0  0  0
 31 66  1  0  0  0  0
 31 67  1  0  0  0  0
M  END
> <NMREDATA_VERSION>
1.1

> <NMREDATA_LEVEL>
0

> <NMREDATA_SOLVENT>
CDCl3

> <NMREDATA_FORMULA>
C18H36N2O7P2S2++

> <NMREDATA_SMILES>
CC1(C)CN2[P@](=[S+]C(C2)(C)O)(O1)OCCOCCO[P@@]12=[S+]C(CN2CC(O1)(C)C)(C)O

> <NMREDATA_ASSIGNMENT>
P3, 84.60, 3
P16, 84.60, 16

> <NMREDATA_1D_31P>
84.60, L=P3
84.60, L=P16

$$$$
