
 OpenBabel08102311372D

 49 49  0  0  0  0  0  0  0  0999 V2000
   19.9580  -13.1157    0.0000 P   0  0  0  0  0  0  0  0  0  0  0  0
   16.6330  -11.9639    0.0000 C   0  0  0  0  0  0  0  0  0  0  0  0
   17.2980  -13.1157    0.0000 C   0  0  0  0  0  0  0  0  0  0  0  0
   15.3030  -11.9639    0.0000 C   0  0  0  0  0  0  0  0  0  0  0  0
   16.6330  -14.2675    0.0000 C   0  0  0  0  0  0  0  0  0  0  0  0
   14.6380  -13.1157    0.0000 C   0  0  0  0  0  0  0  0  0  0  0  0
   15.3030  -14.2675    0.0000 C   0  0  0  0  0  0  0  0  0  0  0  0
   17.2980  -10.8121    0.0000 C   0  0  0  0  0  0  0  0  0  0  0  0
   16.1462  -10.1471    0.0000 C   0  0  0  0  0  0  0  0  0  0  0  0
   18.4498  -11.4771    0.0000 C   0  0  0  0  0  0  0  0  0  0  0  0
   17.9630   -9.6603    0.0000 C   0  0  0  0  0  0  0  0  0  0  0  0
   18.6280  -13.1157    0.0000 C   0  0  0  0  0  0  0  0  0  0  0  0
   17.2980  -15.4194    0.0000 C   0  0  0  0  0  0  0  0  0  0  0  0
   16.1462  -16.0844    0.0000 C   0  0  0  0  0  0  0  0  0  0  0  0
   18.4498  -14.7544    0.0000 C   0  0  0  0  0  0  0  0  0  0  0  0
   17.9630  -16.5712    0.0000 C   0  0  0  0  0  0  0  0  0  0  0  0
   13.3080  -13.1157    0.0000 N   0  3  0  0  0  0  0  0  0  0  0  0
   13.3080  -14.4457    0.0000 C   0  0  0  0  0  0  0  0  0  0  0  0
   13.3080  -11.7857    0.0000 C   0  0  0  0  0  0  0  0  0  0  0  0
   11.9780  -13.1157    0.0000 C   0  0  0  0  0  0  0  0  0  0  0  0
   14.7870  -11.0702    0.0000 H   0  0  0  0  0  0  0  0  0  0  0  0
   14.7870  -15.1612    0.0000 H   0  0  0  0  0  0  0  0  0  0  0  0
   16.1462   -9.0771    0.0000 H   0  0  0  0  0  0  0  0  0  0  0  0
   15.2196  -10.6821    0.0000 H   0  0  0  0  0  0  0  0  0  0  0  0
   15.2196   -9.6121    0.0000 H   0  0  0  0  0  0  0  0  0  0  0  0
   18.4498  -12.5471    0.0000 H   0  0  0  0  0  0  0  0  0  0  0  0
   19.3764  -10.9421    0.0000 H   0  0  0  0  0  0  0  0  0  0  0  0
   19.3764  -12.0121    0.0000 H   0  0  0  0  0  0  0  0  0  0  0  0
   19.0330   -9.6603    0.0000 H   0  0  0  0  0  0  0  0  0  0  0  0
   17.4280   -8.7337    0.0000 H   0  0  0  0  0  0  0  0  0  0  0  0
   18.4980   -8.7337    0.0000 H   0  0  0  0  0  0  0  0  0  0  0  0
   15.2196  -15.5494    0.0000 H   0  0  0  0  0  0  0  0  0  0  0  0
   16.1462  -17.1544    0.0000 H   0  0  0  0  0  0  0  0  0  0  0  0
   15.2196  -16.6194    0.0000 H   0  0  0  0  0  0  0  0  0  0  0  0
   19.3764  -15.2894    0.0000 H   0  0  0  0  0  0  0  0  0  0  0  0
   18.4498  -13.6844    0.0000 H   0  0  0  0  0  0  0  0  0  0  0  0
   19.3764  -14.2194    0.0000 H   0  0  0  0  0  0  0  0  0  0  0  0
   17.4280  -17.4978    0.0000 H   0  0  0  0  0  0  0  0  0  0  0  0
   19.0330  -16.5712    0.0000 H   0  0  0  0  0  0  0  0  0  0  0  0
   18.4980  -17.4978    0.0000 H   0  0  0  0  0  0  0  0  0  0  0  0
   12.3814  -14.9807    0.0000 H   0  0  0  0  0  0  0  0  0  0  0  0
   14.2346  -14.9807    0.0000 H   0  0  0  0  0  0  0  0  0  0  0  0
   13.3080  -15.5157    0.0000 H   0  0  0  0  0  0  0  0  0  0  0  0
   14.2346  -11.2507    0.0000 H   0  0  0  0  0  0  0  0  0  0  0  0
   12.3814  -11.2507    0.0000 H   0  0  0  0  0  0  0  0  0  0  0  0
   13.3080  -10.7157    0.0000 H   0  0  0  0  0  0  0  0  0  0  0  0
   11.4430  -12.1891    0.0000 H   0  0  0  0  0  0  0  0  0  0  0  0
   11.4430  -14.0423    0.0000 H   0  0  0  0  0  0  0  0  0  0  0  0
   10.9080  -13.1157    0.0000 H   0  0  0  0  0  0  0  0  0  0  0  0
  1 12  3  0  0  0  0
  2  3  1  0  0  0  0
  2  4  2  0  0  0  0
  2  8  1  0  0  0  0
  3  5  2  0  0  0  0
  3 12  1  0  0  0  0
  4  6  1  0  0  0  0
  4 21  1  0  0  0  0
  5  7  1  0  0  0  0
  5 13  1  0  0  0  0
  6  7  2  0  0  0  0
  6 17  1  0  0  0  0
  7 22  1  0  0  0  0
  8  9  1  0  0  0  0
  8 10  1  0  0  0  0
  8 11  1  0  0  0  0
  9 23  1  0  0  0  0
  9 24  1  0  0  0  0
  9 25  1  0  0  0  0
 10 26  1  0  0  0  0
 10 27  1  0  0  0  0
 10 28  1  0  0  0  0
 11 29  1  0  0  0  0
 11 30  1  0  0  0  0
 11 31  1  0  0  0  0
 13 14  1  0  0  0  0
 13 15  1  0  0  0  0
 13 16  1  0  0  0  0
 14 32  1  0  0  0  0
 14 33  1  0  0  0  0
 14 34  1  0  0  0  0
 15 35  1  0  0  0  0
 15 36  1  0  0  0  0
 15 37  1  0  0  0  0
 16 38  1  0  0  0  0
 16 39  1  0  0  0  0
 16 40  1  0  0  0  0
 17 18  1  0  0  0  0
 17 19  1  0  0  0  0
 17 20  1  0  0  0  0
 18 41  1  0  0  0  0
 18 42  1  0  0  0  0
 18 43  1  0  0  0  0
 19 44  1  0  0  0  0
 19 45  1  0  0  0  0
 19 46  1  0  0  0  0
 20 47  1  0  0  0  0
 20 48  1  0  0  0  0
 20 49  1  0  0  0  0
M  END
> <NMREDATA_VERSION>
1.1

> <NMREDATA_LEVEL>
0

> <NMREDATA_SOLVENT>
CDCl3

> <NMREDATA_FORMULA>
C18H29NP+

> <NMREDATA_SMILES>
P#Cc1c(cc(cc1C(C)(C)C)[N+](C)(C)C)C(C)(C)C

> <NMREDATA_ASSIGNMENT>
P1, 32.10, 1

> <NMREDATA_1D_31P>
32.10, L=P1

$$$$
