
 OpenBabel08102311372D

 68 67  0  0  0  0  0  0  0  0999 V2000
    6.2285   -5.8796    0.0000 P    0  0  0  0  0  0  0  0  0  0  0  0
    6.2139   -6.4828    0.0000 O    0  0  0  0  0  0  0  0  0  0  0  0
    5.4581   -5.4944    0.0000 O    0  0  0  0  0  0  0  0  0  0  0  0
    5.3709   -6.3302    0.0000 O    0  0  0  0  0  0  0  0  0  0  0  0
    7.2096   -5.8360    0.0000 C    0  0  0  0  0  0  0  0  0  0  0  0
    8.2053   -7.2387    0.0000 N    0  0  0  0  0  0  0  0  0  0  0  0
    9.3637   -6.5852    0.0000 C    0  0  0  0  0  0  0  0  0  0  0  0
   10.5088   -7.2617    0.0000 C    0  0  0  0  0  0  0  0  0  0  0  0
   11.6672   -6.6083    0.0000 C    0  0  0  0  0  0  0  0  0  0  0  0
   12.8123   -7.2848    0.0000 C    0  0  0  0  0  0  0  0  0  0  0  0
   12.8421   -5.8651    0.0000 O    0  0  0  0  0  0  0  0  0  0  0  0
   14.0486   -7.2387    0.0000 O    0  0  0  0  0  0  0  0  0  0  0  0
   14.7317   -7.5803    0.0000 Si   0  0  0  0  0  0  0  0  0  0  0  0
   15.1455   -8.1715    0.0000 C    0  0  0  0  0  0  0  0  0  0  0  0
   15.1959   -6.9892    0.0000 C    0  0  0  0  0  0  0  0  0  0  0  0
   15.6569   -7.4540    0.0000 C    0  0  0  0  0  0  0  0  0  0  0  0
    7.6966   -8.3652    0.0000 C    0  0  0  0  0  0  0  0  0  0  0  0
    6.4610   -8.3070    0.0000 P    0  0  0  0  0  0  0  0  0  0  0  0
    6.4828   -8.9030    0.0000 O    0  0  0  0  0  0  0  0  0  0  0  0
    5.5308   -7.8637    0.0000 O    0  0  0  0  0  0  0  0  0  0  0  0
    5.7343   -8.6704    0.0000 O    0  0  0  0  0  0  0  0  0  0  0  0
    5.4063   -4.6311    0.0000 C    0  0  0  0  0  0  0  0  0  0  0  0
    4.6327   -4.2443    0.0000 C    0  0  0  0  0  0  0  0  0  0  0  0
    5.3324   -7.2961    0.0000 C    0  0  0  0  0  0  0  0  0  0  0  0
    4.4767   -7.7457    0.0000 C    0  0  0  0  0  0  0  0  0  0  0  0
    5.4494   -6.8349    0.0000 C    0  0  0  0  0  0  0  0  0  0  0  0
    4.5178   -6.3909    0.0000 C    0  0  0  0  0  0  0  0  0  0  0  0
    5.6855   -9.4830    0.0000 C    0  0  0  0  0  0  0  0  0  0  0  0
    4.9574   -9.8470    0.0000 C    0  0  0  0  0  0  0  0  0  0  0  0
    7.6794   -4.8746    0.0000 H    0  0  0  0  0  0  0  0  0  0  0  0
    8.2761   -5.7490    0.0000 H    0  0  0  0  0  0  0  0  0  0  0  0
    9.3744   -5.5153    0.0000 H    0  0  0  0  0  0  0  0  0  0  0  0
   10.2957   -6.0595    0.0000 H    0  0  0  0  0  0  0  0  0  0  0  0
   10.4981   -8.3316    0.0000 H    0  0  0  0  0  0  0  0  0  0  0  0
   11.4300   -7.8060    0.0000 H    0  0  0  0  0  0  0  0  0  0  0  0
   11.6779   -5.5384    0.0000 H    0  0  0  0  0  0  0  0  0  0  0  0
   12.5992   -6.0826    0.0000 H    0  0  0  0  0  0  0  0  0  0  0  0
   14.6931   -9.1412    0.0000 H    0  0  0  0  0  0  0  0  0  0  0  0
   16.2114   -8.0784    0.0000 H    0  0  0  0  0  0  0  0  0  0  0  0
   15.7591   -9.0481    0.0000 H    0  0  0  0  0  0  0  0  0  0  0  0
   16.2551   -7.1408    0.0000 H    0  0  0  0  0  0  0  0  0  0  0  0
   14.7975   -5.9961    0.0000 H    0  0  0  0  0  0  0  0  0  0  0  0
   15.8568   -6.1477    0.0000 H    0  0  0  0  0  0  0  0  0  0  0  0
   16.3123   -8.2998    0.0000 H    0  0  0  0  0  0  0  0  0  0  0  0
   16.0616   -6.4635    0.0000 H    0  0  0  0  0  0  0  0  0  0  0  0
   16.7171   -7.3093    0.0000 H    0  0  0  0  0  0  0  0  0  0  0  0
    8.2557   -9.2775    0.0000 H    0  0  0  0  0  0  0  0  0  0  0  0
    7.1520   -9.2862    0.0000 H    0  0  0  0  0  0  0  0  0  0  0  0
    6.2992   -4.0416    0.0000 H    0  0  0  0  0  0  0  0  0  0  0  0
    5.3422   -3.5630    0.0000 H    0  0  0  0  0  0  0  0  0  0  0  0
    4.5686   -3.1762    0.0000 H    0  0  0  0  0  0  0  0  0  0  0  0
    3.7398   -4.8339    0.0000 H    0  0  0  0  0  0  0  0  0  0  0  0
    3.6757   -3.7658    0.0000 H    0  0  0  0  0  0  0  0  0  0  0  0
    6.2370   -7.8676    0.0000 H    0  0  0  0  0  0  0  0  0  0  0  0
    5.2898   -8.3653    0.0000 H    0  0  0  0  0  0  0  0  0  0  0  0
    3.5721   -7.1742    0.0000 H    0  0  0  0  0  0  0  0  0  0  0  0
    4.4341   -8.8149    0.0000 H    0  0  0  0  0  0  0  0  0  0  0  0
    3.5295   -8.2434    0.0000 H    0  0  0  0  0  0  0  0  0  0  0  0
    6.3310   -6.2285    0.0000 H    0  0  0  0  0  0  0  0  0  0  0  0
    5.3651   -5.7682    0.0000 H    0  0  0  0  0  0  0  0  0  0  0  0
    4.4335   -5.3242    0.0000 H    0  0  0  0  0  0  0  0  0  0  0  0
    3.6362   -6.9972    0.0000 H    0  0  0  0  0  0  0  0  0  0  0  0
    3.5519   -5.9305    0.0000 H    0  0  0  0  0  0  0  0  0  0  0  0
    6.5784  -10.0726    0.0000 H    0  0  0  0  0  0  0  0  0  0  0  0
    5.6213  -10.5511    0.0000 H    0  0  0  0  0  0  0  0  0  0  0  0
    4.0645   -9.2574    0.0000 H    0  0  0  0  0  0  0  0  0  0  0  0
    4.8932  -10.9151    0.0000 H    0  0  0  0  0  0  0  0  0  0  0  0
    4.0003  -10.3255    0.0000 H    0  0  0  0  0  0  0  0  0  0  0  0
  1  2  2  0  0  0  0
  1  3  1  0  0  0  0
  1  4  1  0  0  0  0
  1  5  1  0  0  0  0
  3 22  1  0  0  0  0
  4 24  1  0  0  0  0
  5  6  1  0  0  0  0
  5 30  1  0  0  0  0
  5 31  1  0  0  0  0
  6 17  1  0  0  0  0
  7  6  1  0  0  0  0
  7 32  1  0  0  0  0
  7 33  1  0  0  0  0
  8  7  1  0  0  0  0
  8 34  1  0  0  0  0
  8 35  1  0  0  0  0
  9  8  1  0  0  0  0
  9 36  1  0  0  0  0
  9 37  1  0  0  0  0
 10  9  1  0  0  0  0
 10 11  2  0  0  0  0
 10 12  1  0  0  0  0
 12 13  1  0  0  0  0
 13 14  1  0  0  0  0
 13 15  1  0  0  0  0
 13 16  1  0  0  0  0
 14 38  1  0  0  0  0
 14 39  1  0  0  0  0
 14 40  1  0  0  0  0
 15 41  1  0  0  0  0
 15 42  1  0  0  0  0
 15 43  1  0  0  0  0
 16 44  1  0  0  0  0
 16 45  1  0  0  0  0
 16 46  1  0  0  0  0
 17 18  1  0  0  0  0
 17 47  1  0  0  0  0
 17 48  1  0  0  0  0
 18 19  2  0  0  0  0
 18 20  1  0  0  0  0
 18 21  1  0  0  0  0
 20 26  1  0  0  0  0
 21 28  1  0  0  0  0
 22 23  1  0  0  0  0
 22 49  1  0  0  0  0
 22 50  1  0  0  0  0
 23 51  1  0  0  0  0
 23 52  1  0  0  0  0
 23 53  1  0  0  0  0
 24 25  1  0  0  0  0
 24 54  1  0  0  0  0
 24 55  1  0  0  0  0
 25 56  1  0  0  0  0
 25 57  1  0  0  0  0
 25 58  1  0  0  0  0
 26 27  1  0  0  0  0
 26 59  1  0  0  0  0
 26 60  1  0  0  0  0
 27 61  1  0  0  0  0
 27 62  1  0  0  0  0
 27 63  1  0  0  0  0
 28 29  1  0  0  0  0
 28 64  1  0  0  0  0
 28 65  1  0  0  0  0
 29 66  1  0  0  0  0
 29 67  1  0  0  0  0
 29 68  1  0  0  0  0
M  END
> <NMREDATA_VERSION>
1.1

> <NMREDATA_LEVEL>
0

> <NMREDATA_SOLVENT>
CDCl3

> <NMREDATA_FORMULA>
C17H39NO8P2Si

> <NMREDATA_SMILES>
CCOP(=O)(CN(CP(=O)(OCC)OCC)CCCC(=O)O[Si](C)(C)C)OCC

> <NMREDATA_ASSIGNMENT>
P1, 22.12, 1
P18, 22.12, 18

> <NMREDATA_1D_31P>
22.12, L=P1
22.12, L=P18

$$$$
