
 OpenBabel08102311372D

 59 58  0  0  0  0  0  0  0  0999 V2000
    4.6368   -3.0888    0.0000 P   0  0  0  0  0  0  0  0  0  0  0  0
    4.6368   -4.4624    0.0000 C   0  0  0  0  0  0  0  0  0  0  0  0
    3.6048   -4.4624    0.0000 C   0  0  0  0  0  0  0  0  0  0  0  0
    5.6689   -3.0888    0.0000 O   0  0  0  0  0  0  0  0  0  0  0  0
    5.6689   -4.4624    0.0000 C   0  0  0  0  0  0  0  0  0  0  0  0
    5.6689   -5.6689    0.0000 C   0  0  0  0  0  0  0  0  0  0  0  0
    5.6689   -6.8680    0.0000 C   0  0  0  0  0  0  0  0  0  0  0  0
    4.6368   -6.8680    0.0000 C   0  0  0  0  0  0  0  0  0  0  0  0
    3.4304   -6.8680    0.0000 C   0  0  0  0  0  0  0  0  0  0  0  0
    4.6368   -8.0672    0.0000 P   0  0  0  0  0  0  0  0  0  0  0  0
    5.6689   -8.0672    0.0000 O   0  0  0  0  0  0  0  0  0  0  0  0
    6.3520   -5.1528    0.0000 C   0  0  0  0  0  0  0  0  0  0  0  0
    6.3520   -6.1776    0.0000 C   0  0  0  0  0  0  0  0  0  0  0  0
    4.1208   -8.0672    0.0000 O   0  0  0  0  0  0  0  0  0  0  0  0
    4.4624   -8.5832    0.0000 O   0  0  0  0  0  0  0  0  0  0  0  0
    4.1208   -3.0888    0.0000 O   0  0  0  0  0  0  0  0  0  0  0  0
    4.2952   -2.5728    0.0000 O   0  0  0  0  0  0  0  0  0  0  0  0
    6.2465   -4.3018    0.0000 O   0  0  0  0  0  0  0  0  0  0  0  0
    7.1418   -5.4870    0.0000 O   0  0  0  0  0  0  0  0  0  0  0  0
    7.2473   -6.3381    0.0000 C   0  0  0  0  0  0  0  0  0  0  0  0
    8.0371   -6.6723    0.0000 C   0  0  0  0  0  0  0  0  0  0  0  0
    6.2532   -7.0222    0.0000 O   0  0  0  0  0  0  0  0  0  0  0  0
    7.1329   -5.8409    0.0000 O   0  0  0  0  0  0  0  0  0  0  0  0
    7.2317   -4.9963    0.0000 C   0  0  0  0  0  0  0  0  0  0  0  0
    8.0125   -4.6596    0.0000 C   0  0  0  0  0  0  0  0  0  0  0  0
    3.8628   -8.5141    0.0000 C   0  0  0  0  0  0  0  0  0  0  0  0
    4.8223   -8.9926    0.0000 C   0  0  0  0  0  0  0  0  0  0  0  0
    3.8628   -3.5357    0.0000 C   0  0  0  0  0  0  0  0  0  0  0  0
    3.6786   -2.6105    0.0000 C   0  0  0  0  0  0  0  0  0  0  0  0
    3.0888   -3.5687    0.0000 H   0  0  0  0  0  0  0  0  0  0  0  0
    3.0888   -5.3561    0.0000 H   0  0  0  0  0  0  0  0  0  0  0  0
    6.4255   -3.7058    0.0000 H   0  0  0  0  0  0  0  0  0  0  0  0
    6.6575   -4.8719    0.0000 H   0  0  0  0  0  0  0  0  0  0  0  0
    6.4255   -7.6246    0.0000 H   0  0  0  0  0  0  0  0  0  0  0  0
    5.2594   -7.8566    0.0000 H   0  0  0  0  0  0  0  0  0  0  0  0
    2.9144   -5.9743    0.0000 H   0  0  0  0  0  0  0  0  0  0  0  0
    2.9144   -7.7617    0.0000 H   0  0  0  0  0  0  0  0  0  0  0  0
    6.3935   -6.9830    0.0000 H   0  0  0  0  0  0  0  0  0  0  0  0
    7.3789   -7.4000    0.0000 H   0  0  0  0  0  0  0  0  0  0  0  0
    8.1687   -7.7342    0.0000 H   0  0  0  0  0  0  0  0  0  0  0  0
    8.8909   -6.0274    0.0000 H   0  0  0  0  0  0  0  0  0  0  0  0
    9.0225   -7.0893    0.0000 H   0  0  0  0  0  0  0  0  0  0  0  0
    6.3735   -4.3573    0.0000 H   0  0  0  0  0  0  0  0  0  0  0  0
    7.3560   -3.9335    0.0000 H   0  0  0  0  0  0  0  0  0  0  0  0
    8.8707   -5.2987    0.0000 H   0  0  0  0  0  0  0  0  0  0  0  0
    8.1368   -3.5968    0.0000 H   0  0  0  0  0  0  0  0  0  0  0  0
    8.9950   -4.2359    0.0000 H   0  0  0  0  0  0  0  0  0  0  0  0
    2.7928   -8.5141    0.0000 H   0  0  0  0  0  0  0  0  0  0  0  0
    4.3978   -9.4407    0.0000 H   0  0  0  0  0  0  0  0  0  0  0  0
    3.3278   -9.4408    0.0000 H   0  0  0  0  0  0  0  0  0  0  0  0
    4.4796  -10.0062    0.0000 H   0  0  0  0  0  0  0  0  0  0  0  0
    5.8715   -8.7826    0.0000 H   0  0  0  0  0  0  0  0  0  0  0  0
    5.5288   -9.7962    0.0000 H   0  0  0  0  0  0  0  0  0  0  0  0
    2.7928   -3.5357    0.0000 H   0  0  0  0  0  0  0  0  0  0  0  0
    4.3978   -4.4623    0.0000 H   0  0  0  0  0  0  0  0  0  0  0  0
    3.3278   -4.4624    0.0000 H   0  0  0  0  0  0  0  0  0  0  0  0
    3.0880   -1.7182    0.0000 H   0  0  0  0  0  0  0  0  0  0  0  0
    3.2011   -3.5681    0.0000 H   0  0  0  0  0  0  0  0  0  0  0  0
    2.6106   -2.6758    0.0000 H   0  0  0  0  0  0  0  0  0  0  0  0
  1  2  1  0  0  0  0
  1  4  2  0  0  0  0
  1 16  1  0  0  0  0
  1 17  1  0  0  0  0
  2  3  2  0  0  0  0
  2  5  1  0  0  0  0
  3 30  1  0  0  0  0
  3 31  1  0  0  0  0
  5  6  1  0  0  0  0
  5 32  1  0  0  0  0
  5 33  1  0  0  0  0
  6  7  1  0  0  0  0
  6 12  1  0  0  0  0
  6 13  1  0  0  0  0
  7  8  1  0  0  0  0
  7 34  1  0  0  0  0
  7 35  1  0  0  0  0
  8  9  2  0  0  0  0
  8 10  1  0  0  0  0
  9 36  1  0  0  0  0
  9 37  1  0  0  0  0
 10 11  2  0  0  0  0
 10 14  1  0  0  0  0
 10 15  1  0  0  0  0
 12 18  2  0  0  0  0
 12 19  1  0  0  0  0
 13 22  2  0  0  0  0
 13 23  1  0  0  0  0
 14 26  1  0  0  0  0
 15 27  1  0  0  0  0
 16 28  1  0  0  0  0
 17 29  1  0  0  0  0
 19 20  1  0  0  0  0
 20 21  1  0  0  0  0
 20 38  1  0  0  0  0
 20 39  1  0  0  0  0
 21 40  1  0  0  0  0
 21 41  1  0  0  0  0
 21 42  1  0  0  0  0
 23 24  1  0  0  0  0
 24 25  1  0  0  0  0
 24 43  1  0  0  0  0
 24 44  1  0  0  0  0
 25 45  1  0  0  0  0
 25 46  1  0  0  0  0
 25 47  1  0  0  0  0
 26 48  1  0  0  0  0
 26 49  1  0  0  0  0
 26 50  1  0  0  0  0
 27 51  1  0  0  0  0
 27 52  1  0  0  0  0
 27 53  1  0  0  0  0
 28 54  1  0  0  0  0
 28 55  1  0  0  0  0
 28 56  1  0  0  0  0
 29 57  1  0  0  0  0
 29 58  1  0  0  0  0
 29 59  1  0  0  0  0
M  END
> <NMREDATA_VERSION>
1.1

> <NMREDATA_LEVEL>
0

> <NMREDATA_SOLVENT>
CDCl3

> <NMREDATA_FORMULA>
C17H30O10P2

> <NMREDATA_SMILES>
CCOC(=O)C(C(=O)OCC)(CC(=C)P(=O)(OC)OC)CC(=C)P(=O)(OC)OC

> <NMREDATA_ASSIGNMENT>
P1, 21.20, 1
P10, 21.20, 10

> <NMREDATA_1D_31P>
21.20, L=P1
21.20, L=P10

$$$$
