
 OpenBabel08102311372D

 46 47  0  0  0  0  0  0  0  0999 V2000
    3.9719  -10.5201    0.0000 C   0  0  0  0  0  0  0  0  0  0  0  0
    3.9719  -11.8501    0.0000 C   0  0  0  0  0  0  0  0  0  0  0  0
    5.1238   -9.8551    0.0000 C   0  0  0  0  0  0  0  0  0  0  0  0
    5.1238  -12.5151    0.0000 C   0  0  0  0  0  0  0  0  0  0  0  0
    6.2756  -10.5201    0.0000 C   0  0  0  0  0  0  0  0  0  0  0  0
    6.2756  -11.8501    0.0000 C   0  0  0  0  0  0  0  0  0  0  0  0
    7.4274   -9.8552    0.0000 C   0  0  0  0  0  0  0  0  0  0  0  0
    8.5791  -10.5202    0.0000 C   0  0  0  0  0  0  0  0  0  0  0  0
    7.4273  -12.5150    0.0000 C   0  0  0  0  0  0  0  0  0  0  0  0
    8.5791  -11.8501    0.0000 C   0  0  0  0  0  0  0  0  0  0  0  0
    5.1239   -8.5251    0.0000 P   0  0  0  0  0  0  0  0  0  0  0  0
    7.4274   -8.5252    0.0000 P   0  0  0  0  0  0  0  0  0  0  0  0
    4.0409   -8.0381    0.0000 C   0  0  0  0  0  0  0  0  0  0  0  0
    3.7938   -9.2228    0.0000 C   0  0  0  0  0  0  0  0  0  0  0  0
    8.7504   -8.0599    0.0000 C   0  0  0  0  0  0  0  0  0  0  0  0
    8.5832   -9.1283    0.0000 C   0  0  0  0  0  0  0  0  0  0  0  0
    3.0799   -8.7309    0.0000 C   0  0  0  0  0  0  0  0  0  0  0  0
    3.7329  -10.7260    0.0000 C   0  0  0  0  0  0  0  0  0  0  0  0
    9.0090   -6.6813    0.0000 C   0  0  0  0  0  0  0  0  0  0  0  0
    9.6811   -8.4304    0.0000 C   0  0  0  0  0  0  0  0  0  0  0  0
    3.0782  -10.0041    0.0000 H   0  0  0  0  0  0  0  0  0  0  0  0
    3.0782  -12.3661    0.0000 H   0  0  0  0  0  0  0  0  0  0  0  0
    5.1238  -13.5471    0.0000 H   0  0  0  0  0  0  0  0  0  0  0  0
    9.4728  -10.0042    0.0000 H   0  0  0  0  0  0  0  0  0  0  0  0
    7.4273  -13.5470    0.0000 H   0  0  0  0  0  0  0  0  0  0  0  0
    9.4728  -12.3661    0.0000 H   0  0  0  0  0  0  0  0  0  0  0  0
    3.9330   -6.9736    0.0000 H   0  0  0  0  0  0  0  0  0  0  0  0
    3.0650   -7.5993    0.0000 H   0  0  0  0  0  0  0  0  0  0  0  0
    2.8896   -8.6507    0.0000 H   0  0  0  0  0  0  0  0  0  0  0  0
    2.8463   -9.7198    0.0000 H   0  0  0  0  0  0  0  0  0  0  0  0
    9.5625   -8.7566    0.0000 H   0  0  0  0  0  0  0  0  0  0  0  0
    9.7598   -7.7049    0.0000 H   0  0  0  0  0  0  0  0  0  0  0  0
    8.6288  -10.1973    0.0000 H   0  0  0  0  0  0  0  0  0  0  0  0
    9.5318   -9.6233    0.0000 H   0  0  0  0  0  0  0  0  0  0  0  0
    2.1040   -8.2921    0.0000 H   0  0  0  0  0  0  0  0  0  0  0  0
    3.1878   -9.7954    0.0000 H   0  0  0  0  0  0  0  0  0  0  0  0
    2.2119   -9.3566    0.0000 H   0  0  0  0  0  0  0  0  0  0  0  0
    2.7854  -11.2231    0.0000 H   0  0  0  0  0  0  0  0  0  0  0  0
    4.6371  -11.2981    0.0000 H   0  0  0  0  0  0  0  0  0  0  0  0
    3.6896  -11.7951    0.0000 H   0  0  0  0  0  0  0  0  0  0  0  0
   10.0184   -6.3263    0.0000 H   0  0  0  0  0  0  0  0  0  0  0  0
    8.1969   -5.9846    0.0000 H   0  0  0  0  0  0  0  0  0  0  0  0
    9.2063   -5.6296    0.0000 H   0  0  0  0  0  0  0  0  0  0  0  0
   10.6297   -8.9254    0.0000 H   0  0  0  0  0  0  0  0  0  0  0  0
    9.6355   -7.3614    0.0000 H   0  0  0  0  0  0  0  0  0  0  0  0
   10.5841   -7.8564    0.0000 H   0  0  0  0  0  0  0  0  0  0  0  0
  1  2  1  0  0  0  0
  1  3  2  0  0  0  0
  1 21  1  0  0  0  0
  2  4  2  0  0  0  0
  2 22  1  0  0  0  0
  3  5  1  0  0  0  0
  3 11  1  0  0  0  0
  4  6  1  0  0  0  0
  4 23  1  0  0  0  0
  5  7  1  0  0  0  0
  5  6  2  0  0  0  0
  6  9  1  0  0  0  0
  7  8  2  0  0  0  0
  7 12  1  0  0  0  0
  8 10  1  0  0  0  0
  8 24  1  0  0  0  0
  9 10  2  0  0  0  0
  9 25  1  0  0  0  0
 10 26  1  0  0  0  0
 11 13  1  0  0  0  0
 11 14  1  0  0  0  0
 12 15  1  0  0  0  0
 12 16  1  0  0  0  0
 13 17  1  0  0  0  0
 13 27  1  0  0  0  0
 13 28  1  0  0  0  0
 14 18  1  0  0  0  0
 14 29  1  0  0  0  0
 14 30  1  0  0  0  0
 15 19  1  0  0  0  0
 15 31  1  0  0  0  0
 15 32  1  0  0  0  0
 16 20  1  0  0  0  0
 16 33  1  0  0  0  0
 16 34  1  0  0  0  0
 17 35  1  0  0  0  0
 17 36  1  0  0  0  0
 17 37  1  0  0  0  0
 18 38  1  0  0  0  0
 18 39  1  0  0  0  0
 18 40  1  0  0  0  0
 19 41  1  0  0  0  0
 19 42  1  0  0  0  0
 19 43  1  0  0  0  0
 20 44  1  0  0  0  0
 20 45  1  0  0  0  0
 20 46  1  0  0  0  0
M  END
> <NMREDATA_VERSION>
1.1

> <NMREDATA_LEVEL>
0

> <NMREDATA_SOLVENT>
CDCl3

> <NMREDATA_FORMULA>
C18H26P2

> <NMREDATA_SMILES>
CCP(c1cccc2c1c(ccc2)P(CC)CC)CC

> <NMREDATA_ASSIGNMENT>
P11, -26.37, 11
P12, -26.37, 12

> <NMREDATA_1D_31P>
-26.37, L=P11
-26.37, L=P12

$$$$
