
 OpenBabel08102311382D

 90 90  0  0  0  0  0  0  0  0999 V2000
   20.5111   -8.4067    0.0000 C    0  0  0  0  0  0  0  0  0  0  0  0
   20.5111  -10.2465    0.0000 C    0  0  0  0  0  0  0  0  0  0  0  0
   18.9177   -7.4868    0.0000 C    0  0  0  0  0  0  0  0  0  0  0  0
   18.9177  -11.1665    0.0000 C    0  0  0  0  0  0  0  0  0  0  0  0
   17.3244   -8.4067    0.0000 C    0  0  0  0  0  0  0  0  0  0  0  0
   17.3244  -10.2465    0.0000 C    0  0  0  0  0  0  0  0  0  0  0  0
   15.7310  -11.1665    0.0000 C    0  0  0  0  0  0  0  0  0  0  0  0
   15.7310  -13.0063    0.0000 C    0  0  0  0  0  0  0  0  0  0  0  0
   14.1377  -13.9262    0.0000 C    0  0  0  0  0  0  0  0  0  0  0  0
   15.0576  -15.5195    0.0000 O    0  0  0  0  0  0  0  0  0  0  0  0
   16.8975  -15.5195    0.0000 Si   0  0  0  0  0  0  0  0  0  0  0  0
   16.8975  -13.6797    0.0000 C    0  0  0  0  0  0  0  0  0  0  0  0
   16.8975  -17.3594    0.0000 C    0  0  0  0  0  0  0  0  0  0  0  0
   18.7373  -15.5195    0.0000 C    0  0  0  0  0  0  0  0  0  0  0  0
   13.2178  -12.3329    0.0000 P    0  0  0  0  0  0  0  0  0  0  0  0
   12.5444  -14.8461    0.0000 P    0  0  0  0  0  0  0  0  0  0  0  0
   14.8111  -11.4129    0.0000 O    0  0  0  0  0  0  0  0  0  0  0  0
   11.6244  -13.2528    0.0000 O    0  0  0  0  0  0  0  0  0  0  0  0
   11.6244  -13.2528    0.0000 O    0  0  0  0  0  0  0  0  0  0  0  0
   12.2979  -10.7395    0.0000 O    0  0  0  0  0  0  0  0  0  0  0  0
   13.4643  -16.4395    0.0000 O    0  0  0  0  0  0  0  0  0  0  0  0
   10.9510  -15.7660    0.0000 O    0  0  0  0  0  0  0  0  0  0  0  0
   10.0311  -12.3329    0.0000 Si   0  0  0  0  0  0  0  0  0  0  0  0
   10.4580  -10.7395    0.0000 Si   0  0  0  0  0  0  0  0  0  0  0  0
   15.3041  -16.4395    0.0000 Si   0  0  0  0  0  0  0  0  0  0  0  0
   10.9510  -17.6059    0.0000 Si   0  0  0  0  0  0  0  0  0  0  0  0
    9.1112  -13.9262    0.0000 C    0  0  0  0  0  0  0  0  0  0  0  0
   10.9510  -10.7395    0.0000 C    0  0  0  0  0  0  0  0  0  0  0  0
    8.4378  -11.4129    0.0000 C    0  0  0  0  0  0  0  0  0  0  0  0
   10.4580   -8.8997    0.0000 C    0  0  0  0  0  0  0  0  0  0  0  0
   10.4580  -12.5794    0.0000 C    0  0  0  0  0  0  0  0  0  0  0  0
    8.6182  -10.7395    0.0000 C    0  0  0  0  0  0  0  0  0  0  0  0
   15.3041  -18.2793    0.0000 C    0  0  0  0  0  0  0  0  0  0  0  0
   15.3041  -14.5996    0.0000 C    0  0  0  0  0  0  0  0  0  0  0  0
   17.1439  -16.4395    0.0000 C    0  0  0  0  0  0  0  0  0  0  0  0
   12.7909  -17.6059    0.0000 C    0  0  0  0  0  0  0  0  0  0  0  0
    9.1112  -17.6059    0.0000 C    0  0  0  0  0  0  0  0  0  0  0  0
   10.9510  -19.4457    0.0000 C    0  0  0  0  0  0  0  0  0  0  0  0
   21.4048   -7.8907    0.0000 H    0  0  0  0  0  0  0  0  0  0  0  0
   21.4048  -10.7625    0.0000 H    0  0  0  0  0  0  0  0  0  0  0  0
   18.9177   -6.4548    0.0000 H    0  0  0  0  0  0  0  0  0  0  0  0
   18.9177  -12.1985    0.0000 H    0  0  0  0  0  0  0  0  0  0  0  0
   16.4307   -7.8907    0.0000 H    0  0  0  0  0  0  0  0  0  0  0  0
   14.8373  -10.6505    0.0000 H    0  0  0  0  0  0  0  0  0  0  0  0
   16.6247  -13.5223    0.0000 H    0  0  0  0  0  0  0  0  0  0  0  0
   17.8241  -13.1447    0.0000 H    0  0  0  0  0  0  0  0  0  0  0  0
   15.9709  -13.1447    0.0000 H    0  0  0  0  0  0  0  0  0  0  0  0
   16.8975  -12.6097    0.0000 H    0  0  0  0  0  0  0  0  0  0  0  0
   15.9709  -17.8944    0.0000 H    0  0  0  0  0  0  0  0  0  0  0  0
   17.8241  -17.8944    0.0000 H    0  0  0  0  0  0  0  0  0  0  0  0
   16.8975  -18.4294    0.0000 H    0  0  0  0  0  0  0  0  0  0  0  0
   19.2723  -16.4461    0.0000 H    0  0  0  0  0  0  0  0  0  0  0  0
   19.2723  -14.5929    0.0000 H    0  0  0  0  0  0  0  0  0  0  0  0
   19.8073  -15.5195    0.0000 H    0  0  0  0  0  0  0  0  0  0  0  0
    8.0412  -13.9262    0.0000 H    0  0  0  0  0  0  0  0  0  0  0  0
    9.6462  -14.8528    0.0000 H    0  0  0  0  0  0  0  0  0  0  0  0
    8.5762  -14.8528    0.0000 H    0  0  0  0  0  0  0  0  0  0  0  0
   12.0210  -10.7395    0.0000 H    0  0  0  0  0  0  0  0  0  0  0  0
   10.4160   -9.8129    0.0000 H    0  0  0  0  0  0  0  0  0  0  0  0
   11.4860   -9.8128    0.0000 H    0  0  0  0  0  0  0  0  0  0  0  0
    8.4379  -10.3429    0.0000 H    0  0  0  0  0  0  0  0  0  0  0  0
    7.5111  -11.9479    0.0000 H    0  0  0  0  0  0  0  0  0  0  0  0
    7.5112  -10.8779    0.0000 H    0  0  0  0  0  0  0  0  0  0  0  0
   11.3846   -8.3647    0.0000 H    0  0  0  0  0  0  0  0  0  0  0  0
    9.5314   -8.3647    0.0000 H    0  0  0  0  0  0  0  0  0  0  0  0
   10.4580   -7.8297    0.0000 H    0  0  0  0  0  0  0  0  0  0  0  0
    9.5314  -13.1144    0.0000 H    0  0  0  0  0  0  0  0  0  0  0  0
   11.3846  -13.1144    0.0000 H    0  0  0  0  0  0  0  0  0  0  0  0
   10.4580  -13.6494    0.0000 H    0  0  0  0  0  0  0  0  0  0  0  0
    8.0832   -9.8129    0.0000 H    0  0  0  0  0  0  0  0  0  0  0  0
    8.0832  -11.6661    0.0000 H    0  0  0  0  0  0  0  0  0  0  0  0
    7.5482  -10.7395    0.0000 H    0  0  0  0  0  0  0  0  0  0  0  0
   14.3775  -18.8143    0.0000 H    0  0  0  0  0  0  0  0  0  0  0  0
   16.2307  -18.8143    0.0000 H    0  0  0  0  0  0  0  0  0  0  0  0
   15.3041  -19.3493    0.0000 H    0  0  0  0  0  0  0  0  0  0  0  0
   16.2307  -14.0646    0.0000 H    0  0  0  0  0  0  0  0  0  0  0  0
   14.3775  -14.0646    0.0000 H    0  0  0  0  0  0  0  0  0  0  0  0
   15.3041  -13.5296    0.0000 H    0  0  0  0  0  0  0  0  0  0  0  0
   17.6789  -17.3661    0.0000 H    0  0  0  0  0  0  0  0  0  0  0  0
   17.6789  -15.5129    0.0000 H    0  0  0  0  0  0  0  0  0  0  0  0
   18.2139  -16.4395    0.0000 H    0  0  0  0  0  0  0  0  0  0  0  0
   13.3259  -18.5325    0.0000 H    0  0  0  0  0  0  0  0  0  0  0  0
   13.3259  -16.6793    0.0000 H    0  0  0  0  0  0  0  0  0  0  0  0
   13.8609  -17.6059    0.0000 H    0  0  0  0  0  0  0  0  0  0  0  0
    8.5762  -16.6793    0.0000 H    0  0  0  0  0  0  0  0  0  0  0  0
    8.5762  -18.5325    0.0000 H    0  0  0  0  0  0  0  0  0  0  0  0
    8.0412  -17.6059    0.0000 H    0  0  0  0  0  0  0  0  0  0  0  0
   10.0244  -19.9807    0.0000 H    0  0  0  0  0  0  0  0  0  0  0  0
   11.8776  -19.9807    0.0000 H    0  0  0  0  0  0  0  0  0  0  0  0
   10.9510  -20.5157    0.0000 H    0  0  0  0  0  0  0  0  0  0  0  0
  1  2  1  0  0  0  0
  1  3  2  0  0  0  0
  1 39  1  0  0  0  0
  2  4  2  0  0  0  0
  2 40  1  0  0  0  0
  3  5  1  0  0  0  0
  3 41  1  0  0  0  0
  4  6  1  0  0  0  0
  4 42  1  0  0  0  0
  5  6  2  0  0  0  0
  5 43  1  0  0  0  0
  6  7  1  0  0  0  0
  7  8  2  0  0  0  0
  7 44  1  0  0  0  0
  8  9  1  0  0  0  0
  8 45  1  0  0  0  0
  9 10  1  0  0  0  0
  9 15  1  0  0  0  0
  9 16  1  0  0  0  0
 10 11  1  0  0  0  0
 11 12  1  0  0  0  0
 11 13  1  0  0  0  0
 11 14  1  0  0  0  0
 12 46  1  0  0  0  0
 12 47  1  0  0  0  0
 12 48  1  0  0  0  0
 13 49  1  0  0  0  0
 13 50  1  0  0  0  0
 13 51  1  0  0  0  0
 14 52  1  0  0  0  0
 14 53  1  0  0  0  0
 14 54  1  0  0  0  0
 15 17  2  0  0  0  0
 15 19  1  0  0  0  0
 15 20  1  0  0  0  0
 16 18  2  0  0  0  0
 16 21  1  0  0  0  0
 16 22  1  0  0  0  0
 19 23  1  0  0  0  0
 20 24  1  0  0  0  0
 21 25  1  0  0  0  0
 22 26  1  0  0  0  0
 23 27  1  0  0  0  0
 23 28  1  0  0  0  0
 23 29  1  0  0  0  0
 24 30  1  0  0  0  0
 24 31  1  0  0  0  0
 24 32  1  0  0  0  0
 25 33  1  0  0  0  0
 25 34  1  0  0  0  0
 25 35  1  0  0  0  0
 26 36  1  0  0  0  0
 26 37  1  0  0  0  0
 26 38  1  0  0  0  0
 27 55  1  0  0  0  0
 27 56  1  0  0  0  0
 27 57  1  0  0  0  0
 28 58  1  0  0  0  0
 28 59  1  0  0  0  0
 28 60  1  0  0  0  0
 29 61  1  0  0  0  0
 29 62  1  0  0  0  0
 29 63  1  0  0  0  0
 30 64  1  0  0  0  0
 30 65  1  0  0  0  0
 30 66  1  0  0  0  0
 31 67  1  0  0  0  0
 31 68  1  0  0  0  0
 31 69  1  0  0  0  0
 32 70  1  0  0  0  0
 32 71  1  0  0  0  0
 32 72  1  0  0  0  0
 33 73  1  0  0  0  0
 33 74  1  0  0  0  0
 33 75  1  0  0  0  0
 34 76  1  0  0  0  0
 34 77  1  0  0  0  0
 34 78  1  0  0  0  0
 35 79  1  0  0  0  0
 35 80  1  0  0  0  0
 35 81  1  0  0  0  0
 36 82  1  0  0  0  0
 36 83  1  0  0  0  0
 36 84  1  0  0  0  0
 37 85  1  0  0  0  0
 37 86  1  0  0  0  0
 37 87  1  0  0  0  0
 38 88  1  0  0  0  0
 38 89  1  0  0  0  0
 38 90  1  0  0  0  0
M  END
> <NMREDATA_VERSION>
1.1

> <NMREDATA_LEVEL>
0

> <NMREDATA_SOLVENT>
CDCl3

> <NMREDATA_FORMULA>
C24H52O7P2Si5

> <NMREDATA_SMILES>
C[Si](OC(P(=O)(O[Si](C)(C)C)O[Si](C)(C)C)(P(=O)(O[Si](C)(C)C)O[Si](C)(C)C)/C=C/c1ccccc1)(C)C

> <NMREDATA_ASSIGNMENT>
P15, -2.58, 15
P16, -2.58, 16

> <NMREDATA_1D_31P>
-2.58, L=P15
-2.58, L=P16

$$$$
