
 OpenBabel08102311382D

 83 84  0  0  0  0  0  0  0  0999 V2000
   14.9727   -8.6460    0.0000 N   0  0  0  0  0  0  0  0  0  0  0  0
   16.0494   -7.8652    0.0000 N   0  0  0  0  0  0  0  0  0  0  0  0
   15.3826   -9.9113    0.0000 C   0  0  0  0  0  0  0  0  0  0  0  0
   17.1247   -8.6479    0.0000 C   0  0  0  0  0  0  0  0  0  0  0  0
   16.7127   -9.9124    0.0000 N   0  0  0  0  0  0  0  0  0  0  0  0
   17.4936  -10.9891    0.0000 C   0  0  0  0  0  0  0  0  0  0  0  0
   18.7973   -8.7558    0.0000 P   0  0  0  0  0  0  0  0  0  0  0  0
   19.1077   -6.4948    0.0000 S   0  0  0  0  0  0  0  0  0  0  0  0
   22.3440   -8.2017    0.0000 N   0  0  0  0  0  0  0  0  0  0  0  0
   21.9450  -10.6400    0.0000 N   0  0  0  0  0  0  0  0  0  0  0  0
   22.8982   -6.9160    0.0000 C   0  0  0  0  0  0  0  0  0  0  0  0
   24.2191   -6.7612    0.0000 C   0  0  0  0  0  0  0  0  0  0  0  0
   25.6025   -8.2460    0.0000 C   0  0  0  0  0  0  0  0  0  0  0  0
   26.2518   -9.4068    0.0000 C   0  0  0  0  0  0  0  0  0  0  0  0
   23.3415   -9.8642    0.0000 C   0  0  0  0  0  0  0  0  0  0  0  0
   24.4822  -10.5481    0.0000 C   0  0  0  0  0  0  0  0  0  0  0  0
   22.5657  -11.9700    0.0000 C   0  0  0  0  0  0  0  0  0  0  0  0
   21.8031  -13.0597    0.0000 C   0  0  0  0  0  0  0  0  0  0  0  0
   13.2335  -11.2607    0.0000 P   0  0  0  0  0  0  0  0  0  0  0  0
   12.3025   -9.0218    0.0000 S   0  0  0  0  0  0  0  0  0  0  0  0
   10.1523  -11.4158    0.0000 N   0  0  0  0  0  0  0  0  0  0  0  0
   12.3025  -12.9010    0.0000 N   0  0  0  0  0  0  0  0  0  0  0  0
    8.6893   -8.7558    0.0000 C   0  0  0  0  0  0  0  0  0  0  0  0
    9.3781   -7.6181    0.0000 C   0  0  0  0  0  0  0  0  0  0  0  0
    7.8027  -11.6818    0.0000 C   0  0  0  0  0  0  0  0  0  0  0  0
    7.0123  -10.6121    0.0000 C   0  0  0  0  0  0  0  0  0  0  0  0
   10.9725  -14.3640    0.0000 C   0  0  0  0  0  0  0  0  0  0  0  0
    9.6729  -14.0813    0.0000 C   0  0  0  0  0  0  0  0  0  0  0  0
   13.4773  -14.9182    0.0000 C   0  0  0  0  0  0  0  0  0  0  0  0
   12.8167  -16.0725    0.0000 C   0  0  0  0  0  0  0  0  0  0  0  0
   19.5973  -11.9277    0.0000 C   0  0  0  0  0  0  0  0  0  0  0  0
   20.9202  -11.7898    0.0000 C   0  0  0  0  0  0  0  0  0  0  0  0
   19.0554  -13.1424    0.0000 C   0  0  0  0  0  0  0  0  0  0  0  0
   21.7010  -12.8665    0.0000 C   0  0  0  0  0  0  0  0  0  0  0  0
   19.8362  -14.2190    0.0000 C   0  0  0  0  0  0  0  0  0  0  0  0
   21.1591  -14.0811    0.0000 C   0  0  0  0  0  0  0  0  0  0  0  0
   16.8196  -11.8201    0.0000 H   0  0  0  0  0  0  0  0  0  0  0  0
   17.7426  -12.0297    0.0000 H   0  0  0  0  0  0  0  0  0  0  0  0
   22.2590   -6.0579    0.0000 H   0  0  0  0  0  0  0  0  0  0  0  0
   23.3217   -5.9334    0.0000 H   0  0  0  0  0  0  0  0  0  0  0  0
   24.8583   -7.6193    0.0000 H   0  0  0  0  0  0  0  0  0  0  0  0
   24.6426   -5.7786    0.0000 H   0  0  0  0  0  0  0  0  0  0  0  0
   25.2818   -6.6367    0.0000 H   0  0  0  0  0  0  0  0  0  0  0  0
   26.1501   -7.3267    0.0000 H   0  0  0  0  0  0  0  0  0  0  0  0
   26.6724   -8.2606    0.0000 H   0  0  0  0  0  0  0  0  0  0  0  0
   25.7042  -10.3261    0.0000 H   0  0  0  0  0  0  0  0  0  0  0  0
   27.3217   -9.4214    0.0000 H   0  0  0  0  0  0  0  0  0  0  0  0
   26.7741  -10.3406    0.0000 H   0  0  0  0  0  0  0  0  0  0  0  0
   23.3592   -8.7943    0.0000 H   0  0  0  0  0  0  0  0  0  0  0  0
   24.2768   -9.3446    0.0000 H   0  0  0  0  0  0  0  0  0  0  0  0
   24.4646  -11.6180    0.0000 H   0  0  0  0  0  0  0  0  0  0  0  0
   25.4175  -10.0284    0.0000 H   0  0  0  0  0  0  0  0  0  0  0  0
   25.3999  -11.0983    0.0000 H   0  0  0  0  0  0  0  0  0  0  0  0
   23.6317  -12.0630    0.0000 H   0  0  0  0  0  0  0  0  0  0  0  0
   23.0182  -12.9396    0.0000 H   0  0  0  0  0  0  0  0  0  0  0  0
   20.7371  -12.9667    0.0000 H   0  0  0  0  0  0  0  0  0  0  0  0
   22.2556  -14.0293    0.0000 H   0  0  0  0  0  0  0  0  0  0  0  0
   21.1896  -13.9363    0.0000 H   0  0  0  0  0  0  0  0  0  0  0  0
    7.6195   -8.7336    0.0000 H   0  0  0  0  0  0  0  0  0  0  0  0
    8.1737   -7.8182    0.0000 H   0  0  0  0  0  0  0  0  0  0  0  0
   10.4479   -7.6404    0.0000 H   0  0  0  0  0  0  0  0  0  0  0  0
    8.8625   -6.6805    0.0000 H   0  0  0  0  0  0  0  0  0  0  0  0
    9.9323   -6.7028    0.0000 H   0  0  0  0  0  0  0  0  0  0  0  0
    7.3754  -12.6628    0.0000 H   0  0  0  0  0  0  0  0  0  0  0  0
    6.7395  -11.8022    0.0000 H   0  0  0  0  0  0  0  0  0  0  0  0
    7.4396   -9.6311    0.0000 H   0  0  0  0  0  0  0  0  0  0  0  0
    5.9491  -10.7325    0.0000 H   0  0  0  0  0  0  0  0  0  0  0  0
    6.3764   -9.7515    0.0000 H   0  0  0  0  0  0  0  0  0  0  0  0
   11.2983  -15.3832    0.0000 H   0  0  0  0  0  0  0  0  0  0  0  0
   10.2528  -15.1557    0.0000 H   0  0  0  0  0  0  0  0  0  0  0  0
    9.3471  -13.0621    0.0000 H   0  0  0  0  0  0  0  0  0  0  0  0
    8.9532  -14.8731    0.0000 H   0  0  0  0  0  0  0  0  0  0  0  0
    8.6274  -13.8539    0.0000 H   0  0  0  0  0  0  0  0  0  0  0  0
   14.5473  -14.9141    0.0000 H   0  0  0  0  0  0  0  0  0  0  0  0
   14.0158  -15.8428    0.0000 H   0  0  0  0  0  0  0  0  0  0  0  0
   11.7467  -16.0766    0.0000 H   0  0  0  0  0  0  0  0  0  0  0  0
   13.3552  -16.9971    0.0000 H   0  0  0  0  0  0  0  0  0  0  0  0
   12.2852  -17.0012    0.0000 H   0  0  0  0  0  0  0  0  0  0  0  0
   21.3408  -10.8474    0.0000 H   0  0  0  0  0  0  0  0  0  0  0  0
   18.0290  -13.2495    0.0000 H   0  0  0  0  0  0  0  0  0  0  0  0
   22.7274  -12.7595    0.0000 H   0  0  0  0  0  0  0  0  0  0  0  0
   19.4156  -15.1614    0.0000 H   0  0  0  0  0  0  0  0  0  0  0  0
   21.7650  -14.9165    0.0000 H   0  0  0  0  0  0  0  0  0  0  0  0
  1  2  1  0  0  0  0
  1  3  2  0  0  0  0
  2  4  2  0  0  0  0
  3  5  1  0  0  0  0
  3 19  1  0  0  0  0
  4  5  1  0  0  0  0
  4  7  1  0  0  0  0
  5  6  1  0  0  0  0
  6 31  1  0  0  0  0
  6 37  1  0  0  0  0
  6 38  1  0  0  0  0
  7  8  2  0  0  0  0
  7  9  1  0  0  0  0
  7 10  1  0  0  0  0
  9 11  1  0  0  0  0
  9 13  1  0  0  0  0
 10 15  1  0  0  0  0
 10 17  1  0  0  0  0
 11 12  1  0  0  0  0
 11 39  1  0  0  0  0
 11 40  1  0  0  0  0
 12 41  1  0  0  0  0
 12 42  1  0  0  0  0
 12 43  1  0  0  0  0
 13 14  1  0  0  0  0
 13 44  1  0  0  0  0
 13 45  1  0  0  0  0
 14 46  1  0  0  0  0
 14 47  1  0  0  0  0
 14 48  1  0  0  0  0
 15 16  1  0  0  0  0
 15 49  1  0  0  0  0
 15 50  1  0  0  0  0
 16 51  1  0  0  0  0
 16 52  1  0  0  0  0
 16 53  1  0  0  0  0
 17 18  1  0  0  0  0
 17 54  1  0  0  0  0
 17 55  1  0  0  0  0
 18 56  1  0  0  0  0
 18 57  1  0  0  0  0
 18 58  1  0  0  0  0
 19 20  2  0  0  0  0
 19 21  1  0  0  0  0
 19 22  1  0  0  0  0
 21 23  1  0  0  0  0
 21 25  1  0  0  0  0
 22 27  1  0  0  0  0
 22 29  1  0  0  0  0
 23 24  1  0  0  0  0
 23 59  1  0  0  0  0
 23 60  1  0  0  0  0
 24 61  1  0  0  0  0
 24 62  1  0  0  0  0
 24 63  1  0  0  0  0
 25 26  1  0  0  0  0
 25 64  1  0  0  0  0
 25 65  1  0  0  0  0
 26 66  1  0  0  0  0
 26 67  1  0  0  0  0
 26 68  1  0  0  0  0
 27 28  1  0  0  0  0
 27 69  1  0  0  0  0
 27 70  1  0  0  0  0
 28 71  1  0  0  0  0
 28 72  1  0  0  0  0
 28 73  1  0  0  0  0
 29 30  1  0  0  0  0
 29 74  1  0  0  0  0
 29 75  1  0  0  0  0
 30 76  1  0  0  0  0
 30 77  1  0  0  0  0
 30 78  1  0  0  0  0
 31 32  1  0  0  0  0
 31 33  2  0  0  0  0
 32 34  2  0  0  0  0
 32 79  1  0  0  0  0
 33 35  1  0  0  0  0
 33 80  1  0  0  0  0
 34 36  1  0  0  0  0
 34 81  1  0  0  0  0
 35 36  2  0  0  0  0
 35 82  1  0  0  0  0
 36 83  1  0  0  0  0
M  END
> <NMREDATA_VERSION>
1.1

> <NMREDATA_LEVEL>
0

> <NMREDATA_SOLVENT>
toluene

> <NMREDATA_FORMULA>
C25H47N7P2S2

> <NMREDATA_SMILES>
CCN(P(=S)(c1nnc(n1Cc1ccccc1)P(=S)(N(CC)CC)N(CC)CC)N(CC)CC)CC

> <NMREDATA_ASSIGNMENT>
P7, 58.20, 7
P19, 58.20, 19

> <NMREDATA_1D_31P>
58.20, L=P7
58.20, L=P19

$$$$
