
 OpenBabel08102311372D

 59 58  0  0  0  0  0  0  0  0999 V2000
    8.6812   -8.4488    0.0000 C   0  0  0  0  0  0  0  0  0  0  0  0
    8.9828   -9.8769    0.0000 C   0  0  0  0  0  0  0  0  0  0  0  0
    7.5293   -7.7838    0.0000 C   0  0  0  0  0  0  0  0  0  0  0  0
    6.3776   -8.4488    0.0000 C   0  0  0  0  0  0  0  0  0  0  0  0
    6.1560   -9.8551    0.0000 C   0  0  0  0  0  0  0  0  0  0  0  0
    6.9407  -10.3638    0.0000 C   0  0  0  0  0  0  0  0  0  0  0  0
    8.3143  -10.3493    0.0000 C   0  0  0  0  0  0  0  0  0  0  0  0
    5.4944  -10.4728    0.0000 C   0  0  0  0  0  0  0  0  0  0  0  0
    9.6734  -10.4292    0.0000 C   0  0  0  0  0  0  0  0  0  0  0  0
    6.1776   -7.2096    0.0000 P   0  0  0  0  0  0  0  0  0  0  0  0
    8.7576   -7.2096    0.0000 P   0  0  0  0  0  0  0  0  0  0  0  0
    6.1558   -6.1703    0.0000 O   0  0  0  0  0  0  0  0  0  0  0  0
    8.7722   -6.2212    0.0000 O   0  0  0  0  0  0  0  0  0  0  0  0
    9.6661   -6.7808    0.0000 O   0  0  0  0  0  0  0  0  0  0  0  0
    9.6152   -7.3622    0.0000 O   0  0  0  0  0  0  0  0  0  0  0  0
    5.3055   -6.8680    0.0000 O   0  0  0  0  0  0  0  0  0  0  0  0
    5.2619   -7.5803    0.0000 O   0  0  0  0  0  0  0  0  0  0  0  0
   10.4904   -7.3522    0.0000 C   0  0  0  0  0  0  0  0  0  0  0  0
   11.3974   -6.9241    0.0000 C   0  0  0  0  0  0  0  0  0  0  0  0
   10.1769   -6.6950    0.0000 C   0  0  0  0  0  0  0  0  0  0  0  0
   11.0355   -6.8478    0.0000 C   0  0  0  0  0  0  0  0  0  0  0  0
    5.1651   -5.9411    0.0000 C   0  0  0  0  0  0  0  0  0  0  0  0
    4.2921   -5.5991    0.0000 C   0  0  0  0  0  0  0  0  0  0  0  0
    5.1249   -8.5592    0.0000 C   0  0  0  0  0  0  0  0  0  0  0  0
    4.2087   -8.9300    0.0000 C   0  0  0  0  0  0  0  0  0  0  0  0
    9.5472   -7.8204    0.0000 H   0  0  0  0  0  0  0  0  0  0  0  0
    8.6255   -7.3802    0.0000 H   0  0  0  0  0  0  0  0  0  0  0  0
    5.4955   -7.8431    0.0000 H   0  0  0  0  0  0  0  0  0  0  0  0
    5.3947   -8.8718    0.0000 H   0  0  0  0  0  0  0  0  0  0  0  0
    6.8875  -11.3944    0.0000 H   0  0  0  0  0  0  0  0  0  0  0  0
    7.8598   -9.8945    0.0000 H   0  0  0  0  0  0  0  0  0  0  0  0
    7.3771   -9.9172    0.0000 H   0  0  0  0  0  0  0  0  0  0  0  0
    8.4087  -11.3770    0.0000 H   0  0  0  0  0  0  0  0  0  0  0  0
    4.4710  -10.1606    0.0000 H   0  0  0  0  0  0  0  0  0  0  0  0
    5.7357  -11.5152    0.0000 H   0  0  0  0  0  0  0  0  0  0  0  0
    4.7123  -11.2030    0.0000 H   0  0  0  0  0  0  0  0  0  0  0  0
    9.5125  -11.4870    0.0000 H   0  0  0  0  0  0  0  0  0  0  0  0
   10.6700  -10.0397    0.0000 H   0  0  0  0  0  0  0  0  0  0  0  0
   10.5090  -11.0975    0.0000 H   0  0  0  0  0  0  0  0  0  0  0  0
   10.4021   -8.4186    0.0000 H   0  0  0  0  0  0  0  0  0  0  0  0
   11.3698   -7.9618    0.0000 H   0  0  0  0  0  0  0  0  0  0  0  0
   12.2767   -7.5337    0.0000 H   0  0  0  0  0  0  0  0  0  0  0  0
   11.4857   -5.8577    0.0000 H   0  0  0  0  0  0  0  0  0  0  0  0
   12.3650   -6.4674    0.0000 H   0  0  0  0  0  0  0  0  0  0  0  0
    9.8126   -5.6889    0.0000 H   0  0  0  0  0  0  0  0  0  0  0  0
   10.8660   -5.8764    0.0000 H   0  0  0  0  0  0  0  0  0  0  0  0
   11.3999   -7.8539    0.0000 H   0  0  0  0  0  0  0  0  0  0  0  0
   11.7246   -6.0292    0.0000 H   0  0  0  0  0  0  0  0  0  0  0  0
   12.0889   -7.0353    0.0000 H   0  0  0  0  0  0  0  0  0  0  0  0
    6.0012   -5.2734    0.0000 H   0  0  0  0  0  0  0  0  0  0  0  0
    5.0049   -4.8832    0.0000 H   0  0  0  0  0  0  0  0  0  0  0  0
    4.1320   -4.5412    0.0000 H   0  0  0  0  0  0  0  0  0  0  0  0
    3.4560   -6.2668    0.0000 H   0  0  0  0  0  0  0  0  0  0  0  0
    3.2958   -5.2088    0.0000 H   0  0  0  0  0  0  0  0  0  0  0  0
    5.9685   -9.2175    0.0000 H   0  0  0  0  0  0  0  0  0  0  0  0
    4.9766   -9.6189    0.0000 H   0  0  0  0  0  0  0  0  0  0  0  0
    3.3651   -8.2717    0.0000 H   0  0  0  0  0  0  0  0  0  0  0  0
    4.0604   -9.9897    0.0000 H   0  0  0  0  0  0  0  0  0  0  0  0
    3.2169   -9.3314    0.0000 H   0  0  0  0  0  0  0  0  0  0  0  0
  1  2  1  0  0  0  0
  1  3  1  0  0  0  0
  1 26  1  0  0  0  0
  1 27  1  0  0  0  0
  2  7  2  0  0  0  0
  2  9  1  0  0  0  0
  3  4  1  0  0  0  0
  3 10  1  0  0  0  0
  3 11  1  0  0  0  0
  4  5  1  0  0  0  0
  4 28  1  0  0  0  0
  4 29  1  0  0  0  0
  5  6  2  0  0  0  0
  5  8  1  0  0  0  0
  6 30  1  0  0  0  0
  6 31  1  0  0  0  0
  7 32  1  0  0  0  0
  7 33  1  0  0  0  0
  8 34  1  0  0  0  0
  8 35  1  0  0  0  0
  8 36  1  0  0  0  0
  9 37  1  0  0  0  0
  9 38  1  0  0  0  0
  9 39  1  0  0  0  0
 10 12  2  0  0  0  0
 10 16  1  0  0  0  0
 10 17  1  0  0  0  0
 11 13  2  0  0  0  0
 11 14  1  0  0  0  0
 11 15  1  0  0  0  0
 14 18  1  0  0  0  0
 15 20  1  0  0  0  0
 16 22  1  0  0  0  0
 17 24  1  0  0  0  0
 18 19  1  0  0  0  0
 18 40  1  0  0  0  0
 18 41  1  0  0  0  0
 19 42  1  0  0  0  0
 19 43  1  0  0  0  0
 19 44  1  0  0  0  0
 20 21  1  0  0  0  0
 20 45  1  0  0  0  0
 20 46  1  0  0  0  0
 21 47  1  0  0  0  0
 21 48  1  0  0  0  0
 21 49  1  0  0  0  0
 22 23  1  0  0  0  0
 22 50  1  0  0  0  0
 22 51  1  0  0  0  0
 23 52  1  0  0  0  0
 23 53  1  0  0  0  0
 23 54  1  0  0  0  0
 24 25  1  0  0  0  0
 24 55  1  0  0  0  0
 24 56  1  0  0  0  0
 25 57  1  0  0  0  0
 25 58  1  0  0  0  0
 25 59  1  0  0  0  0
M  END
> <NMREDATA_VERSION>
1.1

> <NMREDATA_LEVEL>
0

> <NMREDATA_SOLVENT>
CDCl3

> <NMREDATA_FORMULA>
C17H34O6P2

> <NMREDATA_SMILES>
CCOP(=O)(C(P(=O)(OCC)OCC)(CC(=C)C)CC(=C)C)OCC

> <NMREDATA_ASSIGNMENT>
P10, 26.80, 10
P11, 26.80, 11

> <NMREDATA_1D_31P>
26.80, L=P10
26.80, L=P11

$$$$
