
 OpenBabel08102311372D

 56 56  0  0  0  0  0  0  0  0999 V2000
    9.2434   -8.8715    0.0000 C   0  0  0  0  0  0  0  0  0  0  0  0
    8.5308   -9.9945    0.0000 C   0  0  0  0  0  0  0  0  0  0  0  0
    8.6272   -7.6928    0.0000 C   0  0  0  0  0  0  0  0  0  0  0  0
    7.2019   -9.9387    0.0000 C   0  0  0  0  0  0  0  0  0  0  0  0
    7.2984   -7.6371    0.0000 C   0  0  0  0  0  0  0  0  0  0  0  0
    6.5857   -8.7601    0.0000 C   0  0  0  0  0  0  0  0  0  0  0  0
    5.2328   -8.6268    0.0000 N   0  0  0  0  0  0  0  0  0  0  0  0
    4.0917   -8.5178    0.0000 C   0  0  0  0  0  0  0  0  0  0  0  0
    3.0452   -8.8957    0.0000 C   0  0  0  0  0  0  0  0  0  0  0  0
    4.0118   -7.5221    0.0000 O   0  0  0  0  0  0  0  0  0  0  0  0
   10.1313   -8.9248    0.0000 C   0  0  0  0  0  0  0  0  0  0  0  0
   10.2984  -10.1313    0.0000 P   0  0  0  0  0  0  0  0  0  0  0  0
   10.4728   -7.7256    0.0000 P   0  0  0  0  0  0  0  0  0  0  0  0
   10.1313   -6.7881    0.0000 O   0  0  0  0  0  0  0  0  0  0  0  0
   11.1923   -7.3477    0.0000 O   0  0  0  0  0  0  0  0  0  0  0  0
   11.1851   -8.4379    0.0000 O   0  0  0  0  0  0  0  0  0  0  0  0
   11.3668   -9.4917    0.0000 O   0  0  0  0  0  0  0  0  0  0  0  0
   11.0107  -10.5383    0.0000 O   0  0  0  0  0  0  0  0  0  0  0  0
    9.7824  -10.8144    0.0000 O   0  0  0  0  0  0  0  0  0  0  0  0
    1.9993   -9.2734    0.0000 F   0  0  0  0  0  0  0  0  0  0  0  0
    2.6675   -7.8499    0.0000 F   0  0  0  0  0  0  0  0  0  0  0  0
    3.4229   -9.9416    0.0000 F   0  0  0  0  0  0  0  0  0  0  0  0
   11.8805   -7.7825    0.0000 C   0  0  0  0  0  0  0  0  0  0  0  0
   12.6011   -7.4040    0.0000 C   0  0  0  0  0  0  0  0  0  0  0  0
   12.1609   -8.1764    0.0000 C   0  0  0  0  0  0  0  0  0  0  0  0
   12.8752   -8.8907    0.0000 C   0  0  0  0  0  0  0  0  0  0  0  0
   12.4528  -10.0960    0.0000 C   0  0  0  0  0  0  0  0  0  0  0  0
   13.5191   -9.4576    0.0000 C   0  0  0  0  0  0  0  0  0  0  0  0
   11.7200  -10.1245    0.0000 C   0  0  0  0  0  0  0  0  0  0  0  0
   12.4331  -10.5319    0.0000 C   0  0  0  0  0  0  0  0  0  0  0  0
    9.0089  -10.9091    0.0000 H   0  0  0  0  0  0  0  0  0  0  0  0
    9.1802   -6.8215    0.0000 H   0  0  0  0  0  0  0  0  0  0  0  0
    6.6489  -10.8100    0.0000 H   0  0  0  0  0  0  0  0  0  0  0  0
    6.8203   -6.7225    0.0000 H   0  0  0  0  0  0  0  0  0  0  0  0
    5.3279   -7.6469    0.0000 H   0  0  0  0  0  0  0  0  0  0  0  0
   11.1987   -8.9995    0.0000 H   0  0  0  0  0  0  0  0  0  0  0  0
   11.8378   -8.8516    0.0000 H   0  0  0  0  0  0  0  0  0  0  0  0
   12.7851   -8.3541    0.0000 H   0  0  0  0  0  0  0  0  0  0  0  0
   13.5056   -7.9756    0.0000 H   0  0  0  0  0  0  0  0  0  0  0  0
   12.6438   -6.3349    0.0000 H   0  0  0  0  0  0  0  0  0  0  0  0
   13.5484   -6.9064    0.0000 H   0  0  0  0  0  0  0  0  0  0  0  0
   12.4378   -7.1429    0.0000 H   0  0  0  0  0  0  0  0  0  0  0  0
   13.1944   -7.8995    0.0000 H   0  0  0  0  0  0  0  0  0  0  0  0
   12.5983   -9.9242    0.0000 H   0  0  0  0  0  0  0  0  0  0  0  0
   13.9087   -8.6138    0.0000 H   0  0  0  0  0  0  0  0  0  0  0  0
   13.6318   -9.6473    0.0000 H   0  0  0  0  0  0  0  0  0  0  0  0
   12.4698  -11.1659    0.0000 H   0  0  0  0  0  0  0  0  0  0  0  0
   13.3878  -10.6162    0.0000 H   0  0  0  0  0  0  0  0  0  0  0  0
   14.4541   -9.9778    0.0000 H   0  0  0  0  0  0  0  0  0  0  0  0
   13.5021   -8.3877    0.0000 H   0  0  0  0  0  0  0  0  0  0  0  0
   14.4371   -8.9080    0.0000 H   0  0  0  0  0  0  0  0  0  0  0  0
   11.7152   -9.0545    0.0000 H   0  0  0  0  0  0  0  0  0  0  0  0
   12.6442   -9.5853    0.0000 H   0  0  0  0  0  0  0  0  0  0  0  0
   12.4380  -11.6019    0.0000 H   0  0  0  0  0  0  0  0  0  0  0  0
   13.3573   -9.9927    0.0000 H   0  0  0  0  0  0  0  0  0  0  0  0
   13.3622  -11.0627    0.0000 H   0  0  0  0  0  0  0  0  0  0  0  0
  1  2  1  0  0  0  0
  1  3  2  0  0  0  0
  1 11  1  0  0  0  0
  2  4  2  0  0  0  0
  2 31  1  0  0  0  0
  3  5  1  0  0  0  0
  3 32  1  0  0  0  0
  4  6  1  0  0  0  0
  4 33  1  0  0  0  0
  5  6  2  0  0  0  0
  5 34  1  0  0  0  0
  6  7  1  0  0  0  0
  7  8  1  0  0  0  0
  7 35  1  0  0  0  0
  8  9  1  0  0  0  0
  8 10  2  0  0  0  0
  9 20  1  0  0  0  0
  9 21  1  0  0  0  0
  9 22  1  0  0  0  0
 11 12  1  0  0  0  0
 11 13  1  0  0  0  0
 11 36  1  0  0  0  0
 12 17  1  0  0  0  0
 12 18  1  0  0  0  0
 12 19  2  0  0  0  0
 13 14  2  0  0  0  0
 13 15  1  0  0  0  0
 13 16  1  0  0  0  0
 15 23  1  0  0  0  0
 16 25  1  0  0  0  0
 17 27  1  0  0  0  0
 18 29  1  0  0  0  0
 23 24  1  0  0  0  0
 23 37  1  0  0  0  0
 23 38  1  0  0  0  0
 24 39  1  0  0  0  0
 24 40  1  0  0  0  0
 24 41  1  0  0  0  0
 25 26  1  0  0  0  0
 25 42  1  0  0  0  0
 25 43  1  0  0  0  0
 26 44  1  0  0  0  0
 26 45  1  0  0  0  0
 26 46  1  0  0  0  0
 27 28  1  0  0  0  0
 27 47  1  0  0  0  0
 27 48  1  0  0  0  0
 28 49  1  0  0  0  0
 28 50  1  0  0  0  0
 28 51  1  0  0  0  0
 29 30  1  0  0  0  0
 29 52  1  0  0  0  0
 29 53  1  0  0  0  0
 30 54  1  0  0  0  0
 30 55  1  0  0  0  0
 30 56  1  0  0  0  0
M  END
> <NMREDATA_VERSION>
1.1

> <NMREDATA_LEVEL>
0

> <NMREDATA_SOLVENT>
DMSO-d6

> <NMREDATA_FORMULA>
C17H26F3NO7P2

> <NMREDATA_SMILES>
CCOP(=O)(C(P(=O)(OCC)OCC)c1ccc(cc1)NC(=O)C(F)(F)F)OCC

> <NMREDATA_ASSIGNMENT>
P12, 19.30, 12
P13, 19.30, 13

> <NMREDATA_1D_31P>
19.30, L=P12
19.30, L=P13

$$$$
