
 OpenBabel08102311393D

248256  0  0  0  0  0  0  0  0999 V2000
   25.2885  -17.7073    0.8906 O   0  0  0  0  0  0  0  0  0  0  0  0
   25.2924  -18.9312   -0.1224 P   0  0  2  0  0  0  0  0  0  0  0  0
   24.3104  -19.6294   -0.7259 O   0  0  0  0  0  0  0  0  0  0  0  0
   24.0477  -18.2829    0.3818 C   0  0  1  0  0  0  0  0  0  0  0  0
   15.8421  -17.1155    0.0707 O   0  0  0  0  0  0  0  0  0  0  0  0
   16.9459  -18.3956    0.0163 P   0  0  2  0  0  0  0  0  0  0  0  0
   18.0595  -19.0890   -0.2922 O   0  0  0  0  0  0  0  0  0  0  0  0
   19.0264  -19.2210   -0.5732 C   0  0  0  0  0  0  0  0  0  0  0  0
   19.2833  -17.9208   -0.6849 C   0  0  0  0  0  0  0  0  0  0  0  0
   17.9382  -17.3299   -0.3053 C   0  0  1  0  0  0  0  0  0  0  0  0
   19.7175  -10.5937    0.0567 O   0  0  0  0  0  0  0  0  0  0  0  0
   18.1451  -10.8138    0.0056 P   0  0  1  0  0  0  0  0  0  0  0  0
   17.3739  -11.9050   -0.1675 O   0  0  0  0  0  0  0  0  0  0  0  0
   17.1728  -12.8893   -0.3179 C   0  0  0  0  0  0  0  0  0  0  0  0
   18.4511  -13.2539   -0.3582 C   0  0  0  0  0  0  0  0  0  0  0  0
   19.1367  -11.9165   -0.1490 C   0  0  2  0  0  0  0  0  0  0  0  0
   22.4330  -10.8313    0.0000 C   0  0  0  0  0  0  0  0  0  0  0  0
   22.4330  -11.6733    0.0000 C   0  0  0  0  0  0  0  0  0  0  0  0
   21.7037  -10.4103    0.0000 C   0  0  0  0  0  0  0  0  0  0  0  0
   21.7037  -12.0943    0.0000 C   0  0  0  0  0  0  0  0  0  0  0  0
   20.9743  -10.8313    0.0000 C   0  0  0  0  0  0  0  0  0  0  0  0
   20.9743  -11.6733    0.0000 C   0  0  0  0  0  0  0  0  0  0  0  0
   23.7237  -10.8930    0.0000 O   0  0  0  0  0  0  0  0  0  0  0  0
   24.8489  -11.1509    0.0000 P   0  0  1  0  0  0  0  0  0  0  0  0
   25.4474  -12.3582    0.0000 O   0  0  0  0  0  0  0  0  0  0  0  0
   25.4981  -13.3725    0.0000 C   0  0  0  0  0  0  0  0  0  0  0  0
   24.1792  -13.5450    0.0000 C   0  0  0  0  0  0  0  0  0  0  0  0
   23.7023  -12.1045    0.0000 C   0  0  2  0  0  0  0  0  0  0  0  0
   16.2178  -13.8140   -0.3582 C   0  0  0  0  0  0  0  0  0  0  0  0
   16.5412  -15.1036   -0.3582 C   0  0  0  0  0  0  0  0  0  0  0  0
   18.7745  -14.5433   -0.3582 C   0  0  0  0  0  0  0  0  0  0  0  0
   17.8199  -15.4682   -0.3582 C   0  0  0  0  0  0  0  0  0  0  0  0
   26.3067  -14.4285    0.0000 C   0  0  0  0  0  0  0  0  0  0  0  0
   25.7966  -15.6569    0.0000 C   0  0  0  0  0  0  0  0  0  0  0  0
   23.6692  -14.7734    0.0000 C   0  0  0  0  0  0  0  0  0  0  0  0
   24.4778  -15.8293    0.0000 C   0  0  0  0  0  0  0  0  0  0  0  0
   20.0240  -20.0936   -0.6849 C   0  0  0  0  0  0  0  0  0  0  0  0
   21.2784  -19.6658   -0.6849 C   0  0  0  0  0  0  0  0  0  0  0  0
   20.5376  -17.4931   -0.6849 C   0  0  0  0  0  0  0  0  0  0  0  0
   21.5353  -18.3656   -0.6849 C   0  0  0  0  0  0  0  0  0  0  0  0
   16.2321  -20.2059    0.0163 O   0  0  0  0  0  0  0  0  0  0  0  0
   24.9330  -21.3436   -0.1224 O   0  0  0  0  0  0  0  0  0  0  0  0
   24.9330   -8.8611    0.0000 O   0  0  0  0  0  0  0  0  0  0  0  0
   14.8540   -9.1816    0.0163 O   0  0  0  0  0  0  0  0  0  0  0  0
   18.5396   -8.3324    0.0056 S   0  0  0  0  0  0  0  0  0  0  0  0
   18.1711  -22.3373    0.0163 S   0  0  0  0  0  0  0  0  0  0  0  0
   27.2566  -17.7866   -0.1224 S   0  0  0  0  0  0  0  0  0  0  0  0
   27.6252  -12.1140    0.0000 S   0  0  0  0  0  0  0  0  0  0  0  0
   13.5505   -9.4458    0.0163 C   0  0  0  0  0  0  0  0  0  0  0  0
   12.6699   -8.4491    0.0163 C   0  0  0  0  0  0  0  0  0  0  0  0
   11.3664   -8.7134    0.0163 C   0  0  0  0  0  0  0  0  0  0  0  0
   10.4858   -7.7167    0.0163 C   0  0  0  0  0  0  0  0  0  0  0  0
    9.1824   -7.9809    0.0163 C   0  0  0  0  0  0  0  0  0  0  0  0
    8.3018   -6.9842    0.0163 C   0  0  0  0  0  0  0  0  0  0  0  0
    6.9983   -7.2485    0.0163 C   0  0  0  0  0  0  0  0  0  0  0  0
    6.1177   -6.2517    0.0163 C   0  0  0  0  0  0  0  0  0  0  0  0
   15.5192  -21.3287    0.0163 C   0  0  0  0  0  0  0  0  0  0  0  0
   14.1903  -21.2727    0.0163 C   0  0  0  0  0  0  0  0  0  0  0  0
   13.4774  -22.3955    0.0163 C   0  0  0  0  0  0  0  0  0  0  0  0
   12.1486  -22.3394    0.0163 C   0  0  0  0  0  0  0  0  0  0  0  0
   11.4357  -23.4622    0.0163 C   0  0  0  0  0  0  0  0  0  0  0  0
   10.1068  -23.4062    0.0163 C   0  0  0  0  0  0  0  0  0  0  0  0
    9.3939  -24.5290    0.0163 C   0  0  0  0  0  0  0  0  0  0  0  0
    8.0651  -24.4730    0.0163 C   0  0  0  0  0  0  0  0  0  0  0  0
   26.2550  -21.4888   -0.1224 C   0  0  0  0  0  0  0  0  0  0  0  0
   26.7903  -22.7063   -0.1224 C   0  0  0  0  0  0  0  0  0  0  0  0
   28.1124  -22.8515   -0.1224 C   0  0  0  0  0  0  0  0  0  0  0  0
   28.6477  -24.0690   -0.1224 C   0  0  0  0  0  0  0  0  0  0  0  0
   29.9697  -24.2142   -0.1224 C   0  0  0  0  0  0  0  0  0  0  0  0
   30.5050  -25.4317   -0.1224 C   0  0  0  0  0  0  0  0  0  0  0  0
   31.8271  -25.5768   -0.1224 C   0  0  0  0  0  0  0  0  0  0  0  0
   32.3624  -26.7944   -0.1224 C   0  0  0  0  0  0  0  0  0  0  0  0
   25.8294   -7.8786    0.0000 C   0  0  0  0  0  0  0  0  0  0  0  0
   27.1285   -8.1637    0.0000 C   0  0  0  0  0  0  0  0  0  0  0  0
   28.0250   -7.1813    0.0000 C   0  0  0  0  0  0  0  0  0  0  0  0
   29.3240   -7.4664    0.0000 C   0  0  0  0  0  0  0  0  0  0  0  0
   30.2205   -6.4839    0.0000 C   0  0  0  0  0  0  0  0  0  0  0  0
   31.5196   -6.7690    0.0000 C   0  0  0  0  0  0  0  0  0  0  0  0
   32.4160   -5.7866    0.0000 C   0  0  0  0  0  0  0  0  0  0  0  0
   33.7151   -6.0717    0.0000 C   0  0  0  0  0  0  0  0  0  0  0  0
   18.0960  -12.7447   -0.1490 C   0  0  0  0  0  0  0  0  0  0  0  0
   16.8585  -12.2575   -0.1490 C   0  0  0  0  0  0  0  0  0  0  0  0
   15.8178  -13.0857   -0.1490 C   0  0  0  0  0  0  0  0  0  0  0  0
   14.5802  -12.5985   -0.1490 C   0  0  0  0  0  0  0  0  0  0  0  0
   13.5395  -13.4267   -0.1490 C   0  0  0  0  0  0  0  0  0  0  0  0
   12.3020  -12.9395   -0.1490 C   0  0  0  0  0  0  0  0  0  0  0  0
   11.2613  -13.7677   -0.1490 C   0  0  0  0  0  0  0  0  0  0  0  0
   22.9261  -11.0245    0.0000 C   0  0  0  0  0  0  0  0  0  0  0  0
   23.4734   -9.8123    0.0000 C   0  0  0  0  0  0  0  0  0  0  0  0
   22.6973   -8.7322    0.0000 C   0  0  0  0  0  0  0  0  0  0  0  0
   23.2446   -7.5201    0.0000 C   0  0  0  0  0  0  0  0  0  0  0  0
   22.4685   -6.4400    0.0000 C   0  0  0  0  0  0  0  0  0  0  0  0
   23.0158   -5.2278    0.0000 C   0  0  0  0  0  0  0  0  0  0  0  0
   22.2396   -4.1478    0.0000 C   0  0  0  0  0  0  0  0  0  0  0  0
   23.5942  -19.5332    0.3818 C   0  0  0  0  0  0  0  0  0  0  0  0
   22.2847  -19.7656    0.3818 C   0  0  0  0  0  0  0  0  0  0  0  0
   21.8312  -21.0159    0.3818 C   0  0  0  0  0  0  0  0  0  0  0  0
   20.5217  -21.2484    0.3818 C   0  0  0  0  0  0  0  0  0  0  0  0
   20.0683  -22.4987    0.3818 C   0  0  0  0  0  0  0  0  0  0  0  0
   18.7587  -22.7311    0.3818 C   0  0  0  0  0  0  0  0  0  0  0  0
   18.3053  -23.9815    0.3818 C   0  0  0  0  0  0  0  0  0  0  0  0
   16.8253  -18.0582   -0.3053 C   0  0  0  0  0  0  0  0  0  0  0  0
   15.6381  -17.4586   -0.3053 C   0  0  0  0  0  0  0  0  0  0  0  0
   14.5253  -18.1870   -0.3053 C   0  0  0  0  0  0  0  0  0  0  0  0
   13.3381  -17.5874   -0.3053 C   0  0  0  0  0  0  0  0  0  0  0  0
   12.2253  -18.3157   -0.3053 C   0  0  0  0  0  0  0  0  0  0  0  0
   11.0381  -17.7161   -0.3053 C   0  0  0  0  0  0  0  0  0  0  0  0
    9.9252  -18.4445   -0.3053 C   0  0  0  0  0  0  0  0  0  0  0  0
   25.0058  -18.2858    0.8582 H   0  0  0  0  0  0  0  0  0  0  0  0
   17.9896  -17.5571    0.7390 H   0  0  0  0  0  0  0  0  0  0  0  0
   19.3253  -10.8642   -0.1048 H   0  0  0  0  0  0  0  0  0  0  0  0
   21.7037   -9.3783    0.0000 H   0  0  0  0  0  0  0  0  0  0  0  0
   21.7037  -13.1263    0.0000 H   0  0  0  0  0  0  0  0  0  0  0  0
   24.7602  -12.2649    0.0000 H   0  0  0  0  0  0  0  0  0  0  0  0
   15.2260  -13.5306   -0.3895 H   0  0  0  0  0  0  0  0  0  0  0  0
   19.7670  -14.8262   -0.3582 H   0  0  0  0  0  0  0  0  0  0  0  0
   27.3300  -14.2948    0.0000 H   0  0  0  0  0  0  0  0  0  0  0  0
   22.6459  -14.9072    0.0000 H   0  0  0  0  0  0  0  0  0  0  0  0
   19.8217  -21.1019   -0.7714 H   0  0  0  0  0  0  0  0  0  0  0  0
   20.7375  -16.4807   -0.6849 H   0  0  0  0  0  0  0  0  0  0  0  0
   13.3541  -10.0315    0.8900 H   0  0  0  0  0  0  0  0  0  0  0  0
   13.3941   -9.9121   -0.9340 H   0  0  0  0  0  0  0  0  0  0  0  0
   12.8663   -7.8634   -0.8574 H   0  0  0  0  0  0  0  0  0  0  0  0
   12.8263   -7.9827    0.9665 H   0  0  0  0  0  0  0  0  0  0  0  0
   11.1700   -9.2991    0.8900 H   0  0  0  0  0  0  0  0  0  0  0  0
   11.2100   -9.1798   -0.9339 H   0  0  0  0  0  0  0  0  0  0  0  0
   10.6822   -7.1310   -0.8574 H   0  0  0  0  0  0  0  0  0  0  0  0
   10.6422   -7.2504    0.9666 H   0  0  0  0  0  0  0  0  0  0  0  0
    8.9860   -8.5666    0.8900 H   0  0  0  0  0  0  0  0  0  0  0  0
    9.0260   -8.4472   -0.9340 H   0  0  0  0  0  0  0  0  0  0  0  0
    8.4982   -6.3985   -0.8574 H   0  0  0  0  0  0  0  0  0  0  0  0
    8.4582   -6.5178    0.9665 H   0  0  0  0  0  0  0  0  0  0  0  0
    6.8019   -7.8342    0.8900 H   0  0  0  0  0  0  0  0  0  0  0  0
    6.8419   -7.7149   -0.9339 H   0  0  0  0  0  0  0  0  0  0  0  0
    6.1909   -5.7112    0.9368 H   0  0  0  0  0  0  0  0  0  0  0  0
    5.1295   -6.6488   -0.0865 H   0  0  0  0  0  0  0  0  0  0  0  0
    6.3244   -5.5932   -0.8014 H   0  0  0  0  0  0  0  0  0  0  0  0
   15.8053  -21.8762    0.8900 H   0  0  0  0  0  0  0  0  0  0  0  0
   15.7470  -21.7647   -0.9339 H   0  0  0  0  0  0  0  0  0  0  0  0
   13.9042  -20.7252   -0.8574 H   0  0  0  0  0  0  0  0  0  0  0  0
   13.9625  -20.8367    0.9665 H   0  0  0  0  0  0  0  0  0  0  0  0
   13.7635  -22.9430    0.8900 H   0  0  0  0  0  0  0  0  0  0  0  0
   13.7052  -22.8315   -0.9339 H   0  0  0  0  0  0  0  0  0  0  0  0
   11.8625  -21.7919   -0.8574 H   0  0  0  0  0  0  0  0  0  0  0  0
   11.9208  -21.9034    0.9665 H   0  0  0  0  0  0  0  0  0  0  0  0
   11.7218  -24.0097    0.8900 H   0  0  0  0  0  0  0  0  0  0  0  0
   11.6635  -23.8982   -0.9339 H   0  0  0  0  0  0  0  0  0  0  0  0
    9.8207  -22.8587   -0.8574 H   0  0  0  0  0  0  0  0  0  0  0  0
    9.8790  -22.9702    0.9665 H   0  0  0  0  0  0  0  0  0  0  0  0
    9.6800  -25.0765    0.8900 H   0  0  0  0  0  0  0  0  0  0  0  0
    9.6217  -24.9650   -0.9339 H   0  0  0  0  0  0  0  0  0  0  0  0
    7.7261  -24.0457    0.9368 H   0  0  0  0  0  0  0  0  0  0  0  0
    7.6665  -25.4606   -0.0866 H   0  0  0  0  0  0  0  0  0  0  0  0
    7.7336  -23.8676   -0.8014 H   0  0  0  0  0  0  0  0  0  0  0  0
   26.6204  -20.9907    0.7513 H   0  0  0  0  0  0  0  0  0  0  0  0
   26.5460  -21.0922   -1.0727 H   0  0  0  0  0  0  0  0  0  0  0  0
   26.4249  -23.2044   -0.9961 H   0  0  0  0  0  0  0  0  0  0  0  0
   26.4993  -23.1029    0.8278 H   0  0  0  0  0  0  0  0  0  0  0  0
   28.4778  -22.3534    0.7513 H   0  0  0  0  0  0  0  0  0  0  0  0
   28.4034  -22.4549   -1.0726 H   0  0  0  0  0  0  0  0  0  0  0  0
   28.2823  -24.5671   -0.9961 H   0  0  0  0  0  0  0  0  0  0  0  0
   28.3567  -24.4656    0.8279 H   0  0  0  0  0  0  0  0  0  0  0  0
   30.3351  -23.7161    0.7513 H   0  0  0  0  0  0  0  0  0  0  0  0
   30.2607  -23.8176   -1.0727 H   0  0  0  0  0  0  0  0  0  0  0  0
   30.1396  -25.9298   -0.9961 H   0  0  0  0  0  0  0  0  0  0  0  0
   30.2140  -25.8283    0.8278 H   0  0  0  0  0  0  0  0  0  0  0  0
   32.1925  -25.0787    0.7513 H   0  0  0  0  0  0  0  0  0  0  0  0
   32.1181  -25.1802   -1.0726 H   0  0  0  0  0  0  0  0  0  0  0  0
   32.1281  -27.2870    0.7981 H   0  0  0  0  0  0  0  0  0  0  0  0
   33.4246  -26.7170   -0.2252 H   0  0  0  0  0  0  0  0  0  0  0  0
   31.9651  -27.3587   -0.9401 H   0  0  0  0  0  0  0  0  0  0  0  0
   25.6424   -7.2898    0.8737 H   0  0  0  0  0  0  0  0  0  0  0  0
   25.6805   -7.4098   -0.9502 H   0  0  0  0  0  0  0  0  0  0  0  0
   27.3155   -8.7525   -0.8737 H   0  0  0  0  0  0  0  0  0  0  0  0
   27.2774   -8.6324    0.9503 H   0  0  0  0  0  0  0  0  0  0  0  0
   27.8380   -6.5925    0.8737 H   0  0  0  0  0  0  0  0  0  0  0  0
   27.8761   -6.7125   -0.9503 H   0  0  0  0  0  0  0  0  0  0  0  0
   29.5110   -8.0552   -0.8737 H   0  0  0  0  0  0  0  0  0  0  0  0
   29.4729   -7.9352    0.9502 H   0  0  0  0  0  0  0  0  0  0  0  0
   30.0335   -5.8951    0.8737 H   0  0  0  0  0  0  0  0  0  0  0  0
   30.0716   -6.0151   -0.9503 H   0  0  0  0  0  0  0  0  0  0  0  0
   31.7066   -7.3578   -0.8737 H   0  0  0  0  0  0  0  0  0  0  0  0
   31.6685   -7.2378    0.9502 H   0  0  0  0  0  0  0  0  0  0  0  0
   32.2290   -5.1978    0.8737 H   0  0  0  0  0  0  0  0  0  0  0  0
   32.2671   -5.3178   -0.9502 H   0  0  0  0  0  0  0  0  0  0  0  0
   33.9750   -6.5512    0.9205 H   0  0  0  0  0  0  0  0  0  0  0  0
   34.2786   -5.1679   -0.1029 H   0  0  0  0  0  0  0  0  0  0  0  0
   33.9368   -6.7253   -0.8176 H   0  0  0  0  0  0  0  0  0  0  0  0
   18.1874  -13.3557    0.7247 H   0  0  0  0  0  0  0  0  0  0  0  0
   18.1688  -13.2312   -1.0992 H   0  0  0  0  0  0  0  0  0  0  0  0
   16.7671  -11.6465   -1.0227 H   0  0  0  0  0  0  0  0  0  0  0  0
   16.7857  -11.7710    0.8012 H   0  0  0  0  0  0  0  0  0  0  0  0
   15.9092  -13.6967    0.7247 H   0  0  0  0  0  0  0  0  0  0  0  0
   15.8906  -13.5722   -1.0992 H   0  0  0  0  0  0  0  0  0  0  0  0
   14.4888  -11.9875   -1.0227 H   0  0  0  0  0  0  0  0  0  0  0  0
   14.5074  -12.1120    0.8012 H   0  0  0  0  0  0  0  0  0  0  0  0
   13.6309  -14.0377    0.7247 H   0  0  0  0  0  0  0  0  0  0  0  0
   13.6123  -13.9132   -1.0992 H   0  0  0  0  0  0  0  0  0  0  0  0
   12.2106  -12.3285   -1.0227 H   0  0  0  0  0  0  0  0  0  0  0  0
   12.2292  -12.4530    0.8012 H   0  0  0  0  0  0  0  0  0  0  0  0
   11.2392  -14.3127   -1.0695 H   0  0  0  0  0  0  0  0  0  0  0  0
   10.3573  -13.2046   -0.0461 H   0  0  0  0  0  0  0  0  0  0  0  0
   11.3501  -14.4521    0.6687 H   0  0  0  0  0  0  0  0  0  0  0  0
   22.3114  -11.0859    0.8737 H   0  0  0  0  0  0  0  0  0  0  0  0
   22.4366  -11.0734   -0.9502 H   0  0  0  0  0  0  0  0  0  0  0  0
   24.0881   -9.7509   -0.8737 H   0  0  0  0  0  0  0  0  0  0  0  0
   23.9628   -9.7634    0.9503 H   0  0  0  0  0  0  0  0  0  0  0  0
   22.0826   -8.7935    0.8737 H   0  0  0  0  0  0  0  0  0  0  0  0
   22.2079   -8.7810   -0.9502 H   0  0  0  0  0  0  0  0  0  0  0  0
   23.8593   -7.4588   -0.8737 H   0  0  0  0  0  0  0  0  0  0  0  0
   23.7340   -7.4713    0.9502 H   0  0  0  0  0  0  0  0  0  0  0  0
   21.8538   -6.5014    0.8737 H   0  0  0  0  0  0  0  0  0  0  0  0
   21.9791   -6.4889   -0.9503 H   0  0  0  0  0  0  0  0  0  0  0  0
   23.6305   -5.1664   -0.8737 H   0  0  0  0  0  0  0  0  0  0  0  0
   23.5053   -5.1789    0.9502 H   0  0  0  0  0  0  0  0  0  0  0  0
   21.6963   -4.0990   -0.9205 H   0  0  0  0  0  0  0  0  0  0  0  0
   22.8464   -3.2725    0.1028 H   0  0  0  0  0  0  0  0  0  0  0  0
   21.5517   -4.2030    0.8177 H   0  0  0  0  0  0  0  0  0  0  0  0
   23.9918  -20.0060    1.2555 H   0  0  0  0  0  0  0  0  0  0  0  0
   23.9108  -19.9097   -0.5684 H   0  0  0  0  0  0  0  0  0  0  0  0
   21.8871  -19.2928   -0.4919 H   0  0  0  0  0  0  0  0  0  0  0  0
   21.9681  -19.3891    1.3320 H   0  0  0  0  0  0  0  0  0  0  0  0
   22.2288  -21.4887    1.2555 H   0  0  0  0  0  0  0  0  0  0  0  0
   22.1478  -21.3923   -0.5685 H   0  0  0  0  0  0  0  0  0  0  0  0
   20.1240  -20.7756   -0.4919 H   0  0  0  0  0  0  0  0  0  0  0  0
   20.2051  -20.8720    1.3320 H   0  0  0  0  0  0  0  0  0  0  0  0
   20.4659  -22.9715    1.2555 H   0  0  0  0  0  0  0  0  0  0  0  0
   20.3849  -22.8752   -0.5684 H   0  0  0  0  0  0  0  0  0  0  0  0
   18.3611  -22.2583   -0.4919 H   0  0  0  0  0  0  0  0  0  0  0  0
   18.4420  -22.3546    1.3320 H   0  0  0  0  0  0  0  0  0  0  0  0
   18.5717  -24.4575   -0.5387 H   0  0  0  0  0  0  0  0  0  0  0  0
   17.2403  -23.9747    0.4846 H   0  0  0  0  0  0  0  0  0  0  0  0
   18.7391  -24.5182    1.1995 H   0  0  0  0  0  0  0  0  0  0  0  0
   16.8598  -18.6750    0.5684 H   0  0  0  0  0  0  0  0  0  0  0  0
   16.8528  -18.5493   -1.2556 H   0  0  0  0  0  0  0  0  0  0  0  0
   15.6036  -16.8418   -1.1790 H   0  0  0  0  0  0  0  0  0  0  0  0
   15.6106  -16.9674    0.6449 H   0  0  0  0  0  0  0  0  0  0  0  0
   14.5598  -18.8038    0.5684 H   0  0  0  0  0  0  0  0  0  0  0  0
   14.5528  -18.6782   -1.2555 H   0  0  0  0  0  0  0  0  0  0  0  0
   13.3036  -16.9706   -1.1790 H   0  0  0  0  0  0  0  0  0  0  0  0
   13.3106  -17.0963    0.6449 H   0  0  0  0  0  0  0  0  0  0  0  0
   12.2598  -18.9325    0.5684 H   0  0  0  0  0  0  0  0  0  0  0  0
   12.2528  -18.8068   -1.2555 H   0  0  0  0  0  0  0  0  0  0  0  0
   11.0036  -17.0993   -1.1790 H   0  0  0  0  0  0  0  0  0  0  0  0
   11.0106  -17.2250    0.6449 H   0  0  0  0  0  0  0  0  0  0  0  0
    9.8528  -18.9851   -1.2258 H   0  0  0  0  0  0  0  0  0  0  0  0
    9.0772  -17.8001   -0.2024 H   0  0  0  0  0  0  0  0  0  0  0  0
    9.9503  -19.1342    0.5124 H   0  0  0  0  0  0  0  0  0  0  0  0
  1  2  1  0  0  0  0
  1 34  1  0  0  0  0
  2  3  1  0  0  0  0
  2 42  1  0  0  0  0
  2 47  2  6  0  0  0
  3 38  1  0  0  0  0
  4 36  1  0  0  0  0
  4 40  1  0  0  0  0
  4109  1  1  0  0  0
  5  6  1  0  0  0  0
  5 30  1  0  0  0  0
  6  7  1  0  0  0  0
  6 41  1  0  0  0  0
  6 46  2  1  0  0  0
  7  8  1  0  0  0  0
  8 37  1  0  0  0  0
  8  9  2  0  0  0  0
  9 10  1  0  0  0  0
  9 39  1  0  0  0  0
 10 32  1  0  0  0  0
 10110  1  1  0  0  0
 11 12  1  0  0  0  0
 11 21  1  0  0  0  0
 12 13  1  0  0  0  0
 12 44  1  0  0  0  0
 12 45  2  6  0  0  0
 13 14  1  0  0  0  0
 14 29  1  0  0  0  0
 14 15  2  0  0  0  0
 15 16  1  0  0  0  0
 15 31  1  0  0  0  0
 16111  1  6  0  0  0
 17 18  1  0  0  0  0
 17 19  2  0  0  0  0
 17 23  1  0  0  0  0
 18 20  2  0  0  0  0
 19 21  1  0  0  0  0
 19112  1  0  0  0  0
 20 22  1  0  0  0  0
 20113  1  0  0  0  0
 21 22  2  0  0  0  0
 22 16  1  0  0  0  0
 23 24  1  0  0  0  0
 24 25  1  0  0  0  0
 24 43  1  0  0  0  0
 24 48  2  1  0  0  0
 25 26  1  0  0  0  0
 26 33  1  0  0  0  0
 26 27  2  0  0  0  0
 27 28  1  0  0  0  0
 27 35  1  0  0  0  0
 28 18  1  0  0  0  0
 28114  1  6  0  0  0
 29 30  2  0  0  0  0
 29115  1  0  0  0  0
 30 32  1  0  0  0  0
 31 32  2  0  0  0  0
 31116  1  0  0  0  0
 33 34  2  0  0  0  0
 33117  1  0  0  0  0
 34 36  1  0  0  0  0
 35 36  2  0  0  0  0
 35118  1  0  0  0  0
 37 38  2  0  0  0  0
 37119  1  0  0  0  0
 38 40  1  0  0  0  0
 39 40  2  0  0  0  0
 39120  1  0  0  0  0
 49 44  1  0  0  0  0
 49121  1  0  0  0  0
 49122  1  0  0  0  0
 50 49  1  0  0  0  0
 50123  1  0  0  0  0
 50124  1  0  0  0  0
 51 50  1  0  0  0  0
 51125  1  0  0  0  0
 51126  1  0  0  0  0
 52 51  1  0  0  0  0
 52127  1  0  0  0  0
 52128  1  0  0  0  0
 53 52  1  0  0  0  0
 53129  1  0  0  0  0
 53130  1  0  0  0  0
 54 53  1  0  0  0  0
 54131  1  0  0  0  0
 54132  1  0  0  0  0
 55 54  1  0  0  0  0
 55133  1  0  0  0  0
 55134  1  0  0  0  0
 56 55  1  0  0  0  0
 56135  1  0  0  0  0
 56136  1  0  0  0  0
 56137  1  0  0  0  0
 57 41  1  0  0  0  0
 57138  1  0  0  0  0
 57139  1  0  0  0  0
 58 57  1  0  0  0  0
 58140  1  0  0  0  0
 58141  1  0  0  0  0
 59 58  1  0  0  0  0
 59142  1  0  0  0  0
 59143  1  0  0  0  0
 60 59  1  0  0  0  0
 60144  1  0  0  0  0
 60145  1  0  0  0  0
 61 60  1  0  0  0  0
 61146  1  0  0  0  0
 61147  1  0  0  0  0
 62 61  1  0  0  0  0
 62148  1  0  0  0  0
 62149  1  0  0  0  0
 63 62  1  0  0  0  0
 63150  1  0  0  0  0
 63151  1  0  0  0  0
 64 63  1  0  0  0  0
 64152  1  0  0  0  0
 64153  1  0  0  0  0
 64154  1  0  0  0  0
 65 42  1  0  0  0  0
 65155  1  0  0  0  0
 65156  1  0  0  0  0
 66 65  1  0  0  0  0
 66157  1  0  0  0  0
 66158  1  0  0  0  0
 67 66  1  0  0  0  0
 67159  1  0  0  0  0
 67160  1  0  0  0  0
 68 67  1  0  0  0  0
 68161  1  0  0  0  0
 68162  1  0  0  0  0
 69 68  1  0  0  0  0
 69163  1  0  0  0  0
 69164  1  0  0  0  0
 70 69  1  0  0  0  0
 70165  1  0  0  0  0
 70166  1  0  0  0  0
 71 70  1  0  0  0  0
 71167  1  0  0  0  0
 71168  1  0  0  0  0
 72 71  1  0  0  0  0
 72169  1  0  0  0  0
 72170  1  0  0  0  0
 72171  1  0  0  0  0
 73 43  1  0  0  0  0
 73172  1  0  0  0  0
 73173  1  0  0  0  0
 74 73  1  0  0  0  0
 74174  1  0  0  0  0
 74175  1  0  0  0  0
 75 74  1  0  0  0  0
 75176  1  0  0  0  0
 75177  1  0  0  0  0
 76 75  1  0  0  0  0
 76178  1  0  0  0  0
 76179  1  0  0  0  0
 77 76  1  0  0  0  0
 77180  1  0  0  0  0
 77181  1  0  0  0  0
 78 77  1  0  0  0  0
 78182  1  0  0  0  0
 78183  1  0  0  0  0
 79 78  1  0  0  0  0
 79184  1  0  0  0  0
 79185  1  0  0  0  0
 80 79  1  0  0  0  0
 80186  1  0  0  0  0
 80187  1  0  0  0  0
 80188  1  0  0  0  0
 81 16  1  0  0  0  0
 81189  1  0  0  0  0
 81190  1  0  0  0  0
 82 81  1  0  0  0  0
 82191  1  0  0  0  0
 82192  1  0  0  0  0
 83 82  1  0  0  0  0
 83193  1  0  0  0  0
 83194  1  0  0  0  0
 84 83  1  0  0  0  0
 84195  1  0  0  0  0
 84196  1  0  0  0  0
 85 84  1  0  0  0  0
 85197  1  0  0  0  0
 85198  1  0  0  0  0
 86 85  1  0  0  0  0
 86199  1  0  0  0  0
 86200  1  0  0  0  0
 87 86  1  0  0  0  0
 87201  1  0  0  0  0
 87202  1  0  0  0  0
 87203  1  0  0  0  0
 88 28  1  0  0  0  0
 88204  1  0  0  0  0
 88205  1  0  0  0  0
 89 88  1  0  0  0  0
 89206  1  0  0  0  0
 89207  1  0  0  0  0
 90 89  1  0  0  0  0
 90208  1  0  0  0  0
 90209  1  0  0  0  0
 91 90  1  0  0  0  0
 91210  1  0  0  0  0
 91211  1  0  0  0  0
 92 91  1  0  0  0  0
 92212  1  0  0  0  0
 92213  1  0  0  0  0
 93 92  1  0  0  0  0
 93214  1  0  0  0  0
 93215  1  0  0  0  0
 94 93  1  0  0  0  0
 94216  1  0  0  0  0
 94217  1  0  0  0  0
 94218  1  0  0  0  0
 95  4  1  0  0  0  0
 95219  1  0  0  0  0
 95220  1  0  0  0  0
 96 95  1  0  0  0  0
 96221  1  0  0  0  0
 96222  1  0  0  0  0
 97 96  1  0  0  0  0
 97223  1  0  0  0  0
 97224  1  0  0  0  0
 98 97  1  0  0  0  0
 98225  1  0  0  0  0
 98226  1  0  0  0  0
 99 98  1  0  0  0  0
 99227  1  0  0  0  0
 99228  1  0  0  0  0
100 99  1  0  0  0  0
100229  1  0  0  0  0
100230  1  0  0  0  0
101100  1  0  0  0  0
101231  1  0  0  0  0
101232  1  0  0  0  0
101233  1  0  0  0  0
102 10  1  0  0  0  0
102234  1  0  0  0  0
102235  1  0  0  0  0
103102  1  0  0  0  0
103236  1  0  0  0  0
103237  1  0  0  0  0
104103  1  0  0  0  0
104238  1  0  0  0  0
104239  1  0  0  0  0
105104  1  0  0  0  0
105240  1  0  0  0  0
105241  1  0  0  0  0
106105  1  0  0  0  0
106242  1  0  0  0  0
106243  1  0  0  0  0
107106  1  0  0  0  0
107244  1  0  0  0  0
107245  1  0  0  0  0
108107  1  0  0  0  0
108246  1  0  0  0  0
108247  1  0  0  0  0
108248  1  0  0  0  0
M  END
> <NMREDATA_VERSION>
1.1

> <NMREDATA_LEVEL>
0

> <NMREDATA_SOLVENT>
C6D6

> <NMREDATA_FORMULA>
C88H140O12P4S4

> <NMREDATA_SMILES>
CCCCCCC[C@@H]1c2cc3c4cc2O[P@@](=S)(Oc2c1cc1c(c2)O[P@@](=S)(OCCCCCCCC)Oc2c([C@@H]1CCCCCCC)cc1[C@@H](c5cc([C@H]3CCCCCCC)c(O[P@](=S)(O4)OCCCCCCCC)cc5O[P@](=S)(Oc1c2)OCCCCCCCC)CCCCCCC)OCCCCCCCC

> <NMREDATA_ASSIGNMENT>
P2, 59.25, 2
P6, 59.25, 6
P12, 59.25, 12
P24, 59.25, 24

> <NMREDATA_1D_31P>
59.25, L=P2
59.25, L=P6
59.25, L=P12
59.25, L=P24

$$$$
