
 OpenBabel08102311392D

 94 99  0  0  0  0  0  0  0  0999 V2000
   18.5239  -16.9215    0.0000 N   0  0  0  0  0  0  0  0  0  0  0  0
   21.4402  -16.7933    0.0000 N   0  0  0  0  0  0  0  0  0  0  0  0
   22.4978  -14.8543    0.0000 C   0  0  0  0  0  0  0  0  0  0  0  0
   17.3221  -18.9245    0.0000 C   0  0  0  0  0  0  0  0  0  0  0  0
   23.6497  -12.8593    0.0000 C   0  0  0  0  0  0  0  0  0  0  0  0
   23.6497  -14.1893    0.0000 C   0  0  0  0  0  0  0  0  0  0  0  0
   22.4978  -12.1943    0.0000 C   0  0  0  0  0  0  0  0  0  0  0  0
   21.3461  -12.8593    0.0000 C   0  0  0  0  0  0  0  0  0  0  0  0
   21.3461  -14.1893    0.0000 C   0  0  0  0  0  0  0  0  0  0  0  0
   18.4740  -19.5895    0.0000 C   0  0  0  0  0  0  0  0  0  0  0  0
   18.4740  -20.9195    0.0000 C   0  0  0  0  0  0  0  0  0  0  0  0
   17.3221  -21.5845    0.0000 C   0  0  0  0  0  0  0  0  0  0  0  0
   16.1703  -19.5895    0.0000 C   0  0  0  0  0  0  0  0  0  0  0  0
   16.1703  -20.9195    0.0000 C   0  0  0  0  0  0  0  0  0  0  0  0
   15.0185  -18.9245    0.0000 P   0  0  0  0  0  0  0  0  0  0  0  0
   13.8666  -18.2595    0.0000 S   0  0  0  0  0  0  0  0  0  0  0  0
   14.3535  -20.0763    0.0000 C   0  0  0  0  0  0  0  0  0  0  0  0
   15.6835  -17.7726    0.0000 C   0  0  0  0  0  0  0  0  0  0  0  0
   24.8015  -14.8544    0.0000 P   0  0  0  0  0  0  0  0  0  0  0  0
   25.9533  -15.5194    0.0000 S   0  0  0  0  0  0  0  0  0  0  0  0
   25.4666  -13.7026    0.0000 C   0  0  0  0  0  0  0  0  0  0  0  0
   24.1365  -16.0062    0.0000 C   0  0  0  0  0  0  0  0  0  0  0  0
   23.1277  -11.0230    0.0000 C   0  0  0  0  0  0  0  0  0  0  0  0
   24.4571  -10.9828    0.0000 C   0  0  0  0  0  0  0  0  0  0  0  0
   25.0870   -9.8114    0.0000 C   0  0  0  0  0  0  0  0  0  0  0  0
   26.4164   -9.7712    0.0000 C   0  0  0  0  0  0  0  0  0  0  0  0
   17.9871  -22.7363    0.0000 C   0  0  0  0  0  0  0  0  0  0  0  0
   17.3221  -23.8881    0.0000 C   0  0  0  0  0  0  0  0  0  0  0  0
   17.9871  -25.0399    0.0000 C   0  0  0  0  0  0  0  0  0  0  0  0
   17.3221  -26.1917    0.0000 C   0  0  0  0  0  0  0  0  0  0  0  0
   27.7703  -12.3726    0.0000 C   0  0  0  0  0  0  0  0  0  0  0  0
   27.7703  -13.7026    0.0000 C   0  0  0  0  0  0  0  0  0  0  0  0
   26.6183  -11.7076    0.0000 C   0  0  0  0  0  0  0  0  0  0  0  0
   26.6183  -14.3676    0.0000 C   0  0  0  0  0  0  0  0  0  0  0  0
   25.4666  -12.3726    0.0000 C   0  0  0  0  0  0  0  0  0  0  0  0
   25.2884  -16.6712    0.0000 C   0  0  0  0  0  0  0  0  0  0  0  0
   25.2884  -18.0012    0.0000 C   0  0  0  0  0  0  0  0  0  0  0  0
   24.1365  -18.6662    0.0000 C   0  0  0  0  0  0  0  0  0  0  0  0
   22.9847  -16.6712    0.0000 C   0  0  0  0  0  0  0  0  0  0  0  0
   22.9847  -18.0012    0.0000 C   0  0  0  0  0  0  0  0  0  0  0  0
   16.8354  -15.7776    0.0000 C   0  0  0  0  0  0  0  0  0  0  0  0
   16.8354  -17.1076    0.0000 C   0  0  0  0  0  0  0  0  0  0  0  0
   15.6835  -15.1126    0.0000 C   0  0  0  0  0  0  0  0  0  0  0  0
   14.5317  -15.7776    0.0000 C   0  0  0  0  0  0  0  0  0  0  0  0
   14.5317  -17.1076    0.0000 C   0  0  0  0  0  0  0  0  0  0  0  0
   15.5054  -20.7413    0.0000 C   0  0  0  0  0  0  0  0  0  0  0  0
   15.5054  -22.0713    0.0000 C   0  0  0  0  0  0  0  0  0  0  0  0
   14.3535  -22.7363    0.0000 C   0  0  0  0  0  0  0  0  0  0  0  0
   13.2017  -20.7413    0.0000 C   0  0  0  0  0  0  0  0  0  0  0  0
   13.2017  -22.0713    0.0000 C   0  0  0  0  0  0  0  0  0  0  0  0
   24.5434  -12.3433    0.0000 H   0  0  0  0  0  0  0  0  0  0  0  0
   20.4524  -12.3433    0.0000 H   0  0  0  0  0  0  0  0  0  0  0  0
   20.4524  -14.7053    0.0000 H   0  0  0  0  0  0  0  0  0  0  0  0
   19.3677  -19.0735    0.0000 H   0  0  0  0  0  0  0  0  0  0  0  0
   19.3677  -21.4355    0.0000 H   0  0  0  0  0  0  0  0  0  0  0  0
   15.2766  -21.4355    0.0000 H   0  0  0  0  0  0  0  0  0  0  0  0
   22.5650  -10.1129    0.0000 H   0  0  0  0  0  0  0  0  0  0  0  0
   23.6345  -10.0806    0.0000 H   0  0  0  0  0  0  0  0  0  0  0  0
   25.0199  -11.8929    0.0000 H   0  0  0  0  0  0  0  0  0  0  0  0
   25.5266  -10.9505    0.0000 H   0  0  0  0  0  0  0  0  0  0  0  0
   24.5242   -8.9013    0.0000 H   0  0  0  0  0  0  0  0  0  0  0  0
   25.5937   -8.8690    0.0000 H   0  0  0  0  0  0  0  0  0  0  0  0
   26.9792  -10.6813    0.0000 H   0  0  0  0  0  0  0  0  0  0  0  0
   26.9231   -8.8288    0.0000 H   0  0  0  0  0  0  0  0  0  0  0  0
   27.4859   -9.7389    0.0000 H   0  0  0  0  0  0  0  0  0  0  0  0
   19.0571  -22.7363    0.0000 H   0  0  0  0  0  0  0  0  0  0  0  0
   18.5221  -23.6629    0.0000 H   0  0  0  0  0  0  0  0  0  0  0  0
   16.2521  -23.8881    0.0000 H   0  0  0  0  0  0  0  0  0  0  0  0
   16.7871  -24.8147    0.0000 H   0  0  0  0  0  0  0  0  0  0  0  0
   19.0571  -25.0399    0.0000 H   0  0  0  0  0  0  0  0  0  0  0  0
   18.5221  -25.9665    0.0000 H   0  0  0  0  0  0  0  0  0  0  0  0
   16.2521  -26.1917    0.0000 H   0  0  0  0  0  0  0  0  0  0  0  0
   17.8571  -27.1183    0.0000 H   0  0  0  0  0  0  0  0  0  0  0  0
   16.7871  -27.1183    0.0000 H   0  0  0  0  0  0  0  0  0  0  0  0
   28.6640  -11.8566    0.0000 H   0  0  0  0  0  0  0  0  0  0  0  0
   28.6640  -14.2186    0.0000 H   0  0  0  0  0  0  0  0  0  0  0  0
   26.6182  -10.6756    0.0000 H   0  0  0  0  0  0  0  0  0  0  0  0
   26.6182  -15.3996    0.0000 H   0  0  0  0  0  0  0  0  0  0  0  0
   24.5729  -11.8566    0.0000 H   0  0  0  0  0  0  0  0  0  0  0  0
   26.1821  -16.1552    0.0000 H   0  0  0  0  0  0  0  0  0  0  0  0
   26.1821  -18.5172    0.0000 H   0  0  0  0  0  0  0  0  0  0  0  0
   24.1365  -19.6982    0.0000 H   0  0  0  0  0  0  0  0  0  0  0  0
   22.0910  -16.1552    0.0000 H   0  0  0  0  0  0  0  0  0  0  0  0
   22.0910  -18.5172    0.0000 H   0  0  0  0  0  0  0  0  0  0  0  0
   17.7291  -15.2616    0.0000 H   0  0  0  0  0  0  0  0  0  0  0  0
   17.7291  -17.6236    0.0000 H   0  0  0  0  0  0  0  0  0  0  0  0
   15.6835  -14.0806    0.0000 H   0  0  0  0  0  0  0  0  0  0  0  0
   13.6380  -15.2616    0.0000 H   0  0  0  0  0  0  0  0  0  0  0  0
   13.6380  -17.6236    0.0000 H   0  0  0  0  0  0  0  0  0  0  0  0
   16.3991  -20.2253    0.0000 H   0  0  0  0  0  0  0  0  0  0  0  0
   16.3991  -22.5873    0.0000 H   0  0  0  0  0  0  0  0  0  0  0  0
   14.3535  -23.7683    0.0000 H   0  0  0  0  0  0  0  0  0  0  0  0
   12.3080  -20.2253    0.0000 H   0  0  0  0  0  0  0  0  0  0  0  0
   12.3080  -22.5873    0.0000 H   0  0  0  0  0  0  0  0  0  0  0  0
  1  2  2  0  0  0  0
  1  4  1  0  0  0  0
  2  3  1  0  0  0  0
  3  9  1  0  0  0  0
  4 13  1  0  0  0  0
  5  6  1  0  0  0  0
  5  7  2  0  0  0  0
  5 51  1  0  0  0  0
  6  3  2  0  0  0  0
  6 19  1  0  0  0  0
  7  8  1  0  0  0  0
  8  9  2  0  0  0  0
  8 52  1  0  0  0  0
  9 53  1  0  0  0  0
 10 11  1  0  0  0  0
 10  4  2  0  0  0  0
 10 54  1  0  0  0  0
 11 12  2  0  0  0  0
 11 55  1  0  0  0  0
 12 14  1  0  0  0  0
 13 14  2  0  0  0  0
 13 15  1  0  0  0  0
 14 56  1  0  0  0  0
 15 16  2  0  0  0  0
 15 17  1  0  0  0  0
 15 18  1  0  0  0  0
 17 49  1  0  0  0  0
 18 45  1  0  0  0  0
 19 20  2  0  0  0  0
 19 21  1  0  0  0  0
 19 22  1  0  0  0  0
 22 39  1  0  0  0  0
 23  7  1  0  0  0  0
 23 57  1  0  0  0  0
 23 58  1  0  0  0  0
 24 23  1  0  0  0  0
 24 59  1  0  0  0  0
 24 60  1  0  0  0  0
 25 24  1  0  0  0  0
 25 61  1  0  0  0  0
 25 62  1  0  0  0  0
 26 25  1  0  0  0  0
 26 63  1  0  0  0  0
 26 64  1  0  0  0  0
 26 65  1  0  0  0  0
 27 12  1  0  0  0  0
 27 66  1  0  0  0  0
 27 67  1  0  0  0  0
 28 27  1  0  0  0  0
 28 68  1  0  0  0  0
 28 69  1  0  0  0  0
 29 28  1  0  0  0  0
 29 70  1  0  0  0  0
 29 71  1  0  0  0  0
 30 29  1  0  0  0  0
 30 72  1  0  0  0  0
 30 73  1  0  0  0  0
 30 74  1  0  0  0  0
 31 32  1  0  0  0  0
 31 33  2  0  0  0  0
 31 75  1  0  0  0  0
 32 34  2  0  0  0  0
 32 76  1  0  0  0  0
 33 35  1  0  0  0  0
 33 77  1  0  0  0  0
 34 21  1  0  0  0  0
 34 78  1  0  0  0  0
 35 21  2  0  0  0  0
 35 79  1  0  0  0  0
 36 37  1  0  0  0  0
 36 22  2  0  0  0  0
 36 80  1  0  0  0  0
 37 38  2  0  0  0  0
 37 81  1  0  0  0  0
 38 40  1  0  0  0  0
 38 82  1  0  0  0  0
 39 40  2  0  0  0  0
 39 83  1  0  0  0  0
 40 84  1  0  0  0  0
 41 42  1  0  0  0  0
 41 43  2  0  0  0  0
 41 85  1  0  0  0  0
 42 18  2  0  0  0  0
 42 86  1  0  0  0  0
 43 44  1  0  0  0  0
 43 87  1  0  0  0  0
 44 45  2  0  0  0  0
 44 88  1  0  0  0  0
 45 89  1  0  0  0  0
 46 47  1  0  0  0  0
 46 17  2  0  0  0  0
 46 90  1  0  0  0  0
 47 48  2  0  0  0  0
 47 91  1  0  0  0  0
 48 50  1  0  0  0  0
 48 92  1  0  0  0  0
 49 50  2  0  0  0  0
 49 93  1  0  0  0  0
 50 94  1  0  0  0  0
M  END
> <NMREDATA_VERSION>
1.1

> <NMREDATA_LEVEL>
0

> <NMREDATA_SOLVENT>
CDCl3

> <NMREDATA_FORMULA>
C44H44N2P2S2

> <NMREDATA_SMILES>
CCCCc1ccc(c(c1)P(=S)(c1ccccc1)c1ccccc1)/N=N/c1ccc(cc1P(=S)(c1ccccc1)c1ccccc1)CCCC

> <NMREDATA_ASSIGNMENT>
P15, 43.50, 15
P19, 43.50, 19

> <NMREDATA_1D_31P>
43.50, L=P15
43.50, L=P19

$$$$
