
 OpenBabel08102311392D

138144  0  0  0  0  0  0  0  0999 V2000
    6.3172  -16.9728    0.0000 C   0  0  0  0  0  0  0  0  0  0  0  0
    5.1076  -16.4198    0.0000 C   0  0  0  0  0  0  0  0  0  0  0  0
    7.4009  -16.2017    0.0000 C   0  0  0  0  0  0  0  0  0  0  0  0
    4.9817  -15.0958    0.0000 C   0  0  0  0  0  0  0  0  0  0  0  0
    7.2749  -14.8777    0.0000 C   0  0  0  0  0  0  0  0  0  0  0  0
    6.0653  -14.3248    0.0000 C   0  0  0  0  0  0  0  0  0  0  0  0
    5.9394  -13.0007    0.0000 C   0  0  0  0  0  0  0  0  0  0  0  0
    8.3586  -14.1066    0.0000 C   0  0  0  0  0  0  0  0  0  0  0  0
    8.2327  -12.7826    0.0000 N   0  0  0  0  0  0  0  0  0  0  0  0
    9.3164  -12.0116    0.0000 N   0  0  0  0  0  0  0  0  0  0  0  0
    9.1904  -10.6875    0.0000 C   0  0  0  0  0  0  0  0  0  0  0  0
    4.7298  -12.4478    0.0000 O   0  0  0  0  0  0  0  0  0  0  0  0
    7.0231  -12.2297    0.0000 O   0  0  0  0  0  0  0  0  0  0  0  0
    5.9764   -8.6418    0.0000 C   0  0  0  0  0  0  0  0  0  0  0  0
    6.0180   -7.3124    0.0000 C   0  0  0  0  0  0  0  0  0  0  0  0
    7.1068   -9.3425    0.0000 C   0  0  0  0  0  0  0  0  0  0  0  0
    7.1900   -6.6838    0.0000 C   0  0  0  0  0  0  0  0  0  0  0  0
    8.2789   -8.7138    0.0000 C   0  0  0  0  0  0  0  0  0  0  0  0
    8.3205   -7.3845    0.0000 C   0  0  0  0  0  0  0  0  0  0  0  0
    9.4925   -6.7559    0.0000 C   0  0  0  0  0  0  0  0  0  0  0  0
    9.4093   -9.4146    0.0000 C   0  0  0  0  0  0  0  0  0  0  0  0
   10.5814   -8.7859    0.0000 N   0  0  0  0  0  0  0  0  0  0  0  0
   11.7118   -9.4866    0.0000 N   0  0  0  0  0  0  0  0  0  0  0  0
   12.8839   -8.8580    0.0000 C   0  0  0  0  0  0  0  0  0  0  0  0
    9.5341   -5.4265    0.0000 O   0  0  0  0  0  0  0  0  0  0  0  0
   10.6230   -7.4566    0.0000 O   0  0  0  0  0  0  0  0  0  0  0  0
   23.5565   -6.8621    0.0000 C   0  0  0  0  0  0  0  0  0  0  0  0
   24.0616   -8.0925    0.0000 C   0  0  0  0  0  0  0  0  0  0  0  0
   22.2385   -6.6843    0.0000 C   0  0  0  0  0  0  0  0  0  0  0  0
   23.2486   -9.1450    0.0000 C   0  0  0  0  0  0  0  0  0  0  0  0
   21.4254   -7.7369    0.0000 C   0  0  0  0  0  0  0  0  0  0  0  0
   21.9305   -8.9672    0.0000 C   0  0  0  0  0  0  0  0  0  0  0  0
   21.1175  -10.0198    0.0000 C   0  0  0  0  0  0  0  0  0  0  0  0
   20.1074   -7.5590    0.0000 C   0  0  0  0  0  0  0  0  0  0  0  0
   19.2944   -8.6116    0.0000 N   0  0  0  0  0  0  0  0  0  0  0  0
   17.9763   -8.4338    0.0000 N   0  0  0  0  0  0  0  0  0  0  0  0
   17.1633   -9.4864    0.0000 C   0  0  0  0  0  0  0  0  0  0  0  0
   21.6225  -11.2502    0.0000 O   0  0  0  0  0  0  0  0  0  0  0  0
   19.7994   -9.8420    0.0000 O   0  0  0  0  0  0  0  0  0  0  0  0
   24.0326  -13.1414    0.0000 C   0  0  0  0  0  0  0  0  0  0  0  0
   24.0326  -14.4714    0.0000 C   0  0  0  0  0  0  0  0  0  0  0  0
   22.8808  -12.4764    0.0000 C   0  0  0  0  0  0  0  0  0  0  0  0
   22.8808  -15.1364    0.0000 C   0  0  0  0  0  0  0  0  0  0  0  0
   21.7290  -13.1414    0.0000 C   0  0  0  0  0  0  0  0  0  0  0  0
   21.7290  -14.4714    0.0000 C   0  0  0  0  0  0  0  0  0  0  0  0
   20.5771  -15.1364    0.0000 C   0  0  0  0  0  0  0  0  0  0  0  0
   20.5771  -12.4764    0.0000 C   0  0  0  0  0  0  0  0  0  0  0  0
   19.4253  -13.1414    0.0000 N   0  0  0  0  0  0  0  0  0  0  0  0
   18.2735  -12.4764    0.0000 N   0  0  0  0  0  0  0  0  0  0  0  0
   17.1217  -13.1414    0.0000 C   0  0  0  0  0  0  0  0  0  0  0  0
   20.5771  -16.4664    0.0000 O   0  0  0  0  0  0  0  0  0  0  0  0
   19.4253  -14.4714    0.0000 O   0  0  0  0  0  0  0  0  0  0  0  0
   21.3912  -18.2210    0.0000 C   0  0  0  0  0  0  0  0  0  0  0  0
   21.3912  -19.5510    0.0000 C   0  0  0  0  0  0  0  0  0  0  0  0
   20.2394  -17.5560    0.0000 C   0  0  0  0  0  0  0  0  0  0  0  0
   20.2394  -20.2160    0.0000 C   0  0  0  0  0  0  0  0  0  0  0  0
   19.0876  -18.2210    0.0000 C   0  0  0  0  0  0  0  0  0  0  0  0
   19.0876  -19.5510    0.0000 C   0  0  0  0  0  0  0  0  0  0  0  0
   17.9358  -20.2160    0.0000 C   0  0  0  0  0  0  0  0  0  0  0  0
   17.9358  -17.5560    0.0000 C   0  0  0  0  0  0  0  0  0  0  0  0
   16.7840  -18.2210    0.0000 N   0  0  0  0  0  0  0  0  0  0  0  0
   15.6321  -17.5560    0.0000 N   0  0  0  0  0  0  0  0  0  0  0  0
   14.4803  -18.2210    0.0000 C   0  0  0  0  0  0  0  0  0  0  0  0
   17.9358  -21.5460    0.0000 O   0  0  0  0  0  0  0  0  0  0  0  0
   16.7840  -19.5510    0.0000 O   0  0  0  0  0  0  0  0  0  0  0  0
   14.2765  -20.2241    0.0000 C   0  0  0  0  0  0  0  0  0  0  0  0
   14.2765  -21.5541    0.0000 C   0  0  0  0  0  0  0  0  0  0  0  0
   13.1247  -19.5591    0.0000 C   0  0  0  0  0  0  0  0  0  0  0  0
   13.1247  -22.2191    0.0000 C   0  0  0  0  0  0  0  0  0  0  0  0
   11.9729  -20.2241    0.0000 C   0  0  0  0  0  0  0  0  0  0  0  0
   11.9729  -21.5541    0.0000 C   0  0  0  0  0  0  0  0  0  0  0  0
   10.8211  -22.2191    0.0000 C   0  0  0  0  0  0  0  0  0  0  0  0
   10.8211  -19.5591    0.0000 C   0  0  0  0  0  0  0  0  0  0  0  0
    9.6693  -20.2241    0.0000 N   0  0  0  0  0  0  0  0  0  0  0  0
    8.5174  -19.5591    0.0000 N   0  0  0  0  0  0  0  0  0  0  0  0
    7.3656  -20.2241    0.0000 C   0  0  0  0  0  0  0  0  0  0  0  0
   10.8211  -23.5491    0.0000 O   0  0  0  0  0  0  0  0  0  0  0  0
    9.6693  -21.5541    0.0000 O   0  0  0  0  0  0  0  0  0  0  0  0
   14.4149  -11.1704    0.0000 P   0  0  3  0  0  0  0  0  0  0  0  0
   14.4149  -12.5004    0.0000 N   0  0  0  0  0  0  0  0  0  0  0  0
   13.2630  -10.5054    0.0000 N   0  0  0  0  0  0  0  0  0  0  0  0
   13.2630  -13.1654    0.0000 P   0  0  3  0  0  0  0  0  0  0  0  0
   12.1112  -11.1704    0.0000 P   0  0  3  0  0  0  0  0  0  0  0  0
   12.1112  -12.5004    0.0000 N   0  0  0  0  0  0  0  0  0  0  0  0
    6.4149  -18.0002    0.0000 H   0  0  0  0  0  0  0  0  0  0  0  0
    4.2667  -17.0181    0.0000 H   0  0  0  0  0  0  0  0  0  0  0  0
    8.3395  -16.6307    0.0000 H   0  0  0  0  0  0  0  0  0  0  0  0
    4.0431  -14.6667    0.0000 H   0  0  0  0  0  0  0  0  0  0  0  0
    9.2972  -14.5357    0.0000 H   0  0  0  0  0  0  0  0  0  0  0  0
   10.0622  -10.0671    0.0000 H   0  0  0  0  0  0  0  0  0  0  0  0
    8.2172  -10.2427    0.0000 H   0  0  0  0  0  0  0  0  0  0  0  0
    9.0890   -9.6223    0.0000 H   0  0  0  0  0  0  0  0  0  0  0  0
    4.6410  -11.5150    0.0000 H   0  0  0  0  0  0  0  0  0  0  0  0
    5.0670   -9.1296    0.0000 H   0  0  0  0  0  0  0  0  0  0  0  0
    5.1408   -6.7687    0.0000 H   0  0  0  0  0  0  0  0  0  0  0  0
    7.0745  -10.3740    0.0000 H   0  0  0  0  0  0  0  0  0  0  0  0
    7.2223   -5.6523    0.0000 H   0  0  0  0  0  0  0  0  0  0  0  0
    9.3770  -10.4461    0.0000 H   0  0  0  0  0  0  0  0  0  0  0  0
   13.7933   -9.4218    0.0000 H   0  0  0  0  0  0  0  0  0  0  0  0
   12.9174   -7.7885    0.0000 H   0  0  0  0  0  0  0  0  0  0  0  0
   13.8269   -8.3523    0.0000 H   0  0  0  0  0  0  0  0  0  0  0  0
   10.3598   -4.9836    0.0000 H   0  0  0  0  0  0  0  0  0  0  0  0
   24.1873   -6.0454    0.0000 H   0  0  0  0  0  0  0  0  0  0  0  0
   25.0843   -8.2305    0.0000 H   0  0  0  0  0  0  0  0  0  0  0  0
   21.8466   -5.7296    0.0000 H   0  0  0  0  0  0  0  0  0  0  0  0
   23.6405  -10.0997    0.0000 H   0  0  0  0  0  0  0  0  0  0  0  0
   19.7155   -6.6043    0.0000 H   0  0  0  0  0  0  0  0  0  0  0  0
   16.1029   -9.3434    0.0000 H   0  0  0  0  0  0  0  0  0  0  0  0
   17.5696  -10.4762    0.0000 H   0  0  0  0  0  0  0  0  0  0  0  0
   16.5092  -10.3332    0.0000 H   0  0  0  0  0  0  0  0  0  0  0  0
   21.0497  -11.9917    0.0000 H   0  0  0  0  0  0  0  0  0  0  0  0
   24.9263  -12.6254    0.0000 H   0  0  0  0  0  0  0  0  0  0  0  0
   24.9263  -14.9874    0.0000 H   0  0  0  0  0  0  0  0  0  0  0  0
   22.8808  -11.4444    0.0000 H   0  0  0  0  0  0  0  0  0  0  0  0
   22.8808  -16.1684    0.0000 H   0  0  0  0  0  0  0  0  0  0  0  0
   20.5771  -11.4444    0.0000 H   0  0  0  0  0  0  0  0  0  0  0  0
   16.1951  -12.6064    0.0000 H   0  0  0  0  0  0  0  0  0  0  0  0
   17.1217  -14.2114    0.0000 H   0  0  0  0  0  0  0  0  0  0  0  0
   16.1951  -13.6764    0.0000 H   0  0  0  0  0  0  0  0  0  0  0  0
   19.7656  -16.9349    0.0000 H   0  0  0  0  0  0  0  0  0  0  0  0
   22.2849  -17.7050    0.0000 H   0  0  0  0  0  0  0  0  0  0  0  0
   22.2849  -20.0670    0.0000 H   0  0  0  0  0  0  0  0  0  0  0  0
   20.2394  -16.5240    0.0000 H   0  0  0  0  0  0  0  0  0  0  0  0
   20.2394  -21.2480    0.0000 H   0  0  0  0  0  0  0  0  0  0  0  0
   17.9358  -16.5240    0.0000 H   0  0  0  0  0  0  0  0  0  0  0  0
   13.5537  -17.6860    0.0000 H   0  0  0  0  0  0  0  0  0  0  0  0
   14.4803  -19.2910    0.0000 H   0  0  0  0  0  0  0  0  0  0  0  0
   13.5537  -18.7560    0.0000 H   0  0  0  0  0  0  0  0  0  0  0  0
   17.1243  -22.0145    0.0000 H   0  0  0  0  0  0  0  0  0  0  0  0
   15.1702  -19.7081    0.0000 H   0  0  0  0  0  0  0  0  0  0  0  0
   15.1702  -22.0701    0.0000 H   0  0  0  0  0  0  0  0  0  0  0  0
   13.1247  -18.5271    0.0000 H   0  0  0  0  0  0  0  0  0  0  0  0
   13.1247  -23.2511    0.0000 H   0  0  0  0  0  0  0  0  0  0  0  0
   10.8211  -18.5271    0.0000 H   0  0  0  0  0  0  0  0  0  0  0  0
    6.4390  -19.6891    0.0000 H   0  0  0  0  0  0  0  0  0  0  0  0
    7.3656  -21.2941    0.0000 H   0  0  0  0  0  0  0  0  0  0  0  0
    6.4390  -20.7591    0.0000 H   0  0  0  0  0  0  0  0  0  0  0  0
   10.0096  -24.0176    0.0000 H   0  0  0  0  0  0  0  0  0  0  0  0
  1  2  1  0  0  0  0
  1  3  2  0  0  0  0
  1 85  1  0  0  0  0
  2  4  2  0  0  0  0
  2 86  1  0  0  0  0
  3  5  1  0  0  0  0
  3 87  1  0  0  0  0
  4  6  1  0  0  0  0
  4 88  1  0  0  0  0
  5  6  2  0  0  0  0
  5  8  1  0  0  0  0
  6  7  1  0  0  0  0
  7 12  1  0  0  0  0
  7 13  2  0  0  0  0
  8  9  2  0  0  0  0
  8 89  1  0  0  0  0
  9 10  1  0  0  0  0
 10 11  1  0  0  0  0
 10 83  1  0  0  0  0
 11 90  1  0  0  0  0
 11 91  1  0  0  0  0
 11 92  1  0  0  0  0
 12 93  1  0  0  0  0
 14 15  1  0  0  0  0
 14 16  2  0  0  0  0
 14 94  1  0  0  0  0
 15 17  2  0  0  0  0
 15 95  1  0  0  0  0
 16 18  1  0  0  0  0
 16 96  1  0  0  0  0
 17 19  1  0  0  0  0
 17 97  1  0  0  0  0
 18 19  2  0  0  0  0
 18 21  1  0  0  0  0
 19 20  1  0  0  0  0
 20 25  1  0  0  0  0
 20 26  2  0  0  0  0
 21 22  2  0  0  0  0
 21 98  1  0  0  0  0
 22 23  1  0  0  0  0
 23 24  1  0  0  0  0
 23 83  1  0  0  0  0
 24 99  1  0  0  0  0
 24100  1  0  0  0  0
 24101  1  0  0  0  0
 25102  1  0  0  0  0
 27 28  1  0  0  0  0
 27 29  2  0  0  0  0
 27103  1  0  0  0  0
 28 30  2  0  0  0  0
 28104  1  0  0  0  0
 29 31  1  0  0  0  0
 29105  1  0  0  0  0
 30 32  1  0  0  0  0
 30106  1  0  0  0  0
 31 32  2  0  0  0  0
 31 34  1  0  0  0  0
 32 33  1  0  0  0  0
 33 38  1  0  0  0  0
 33 39  2  0  0  0  0
 34 35  2  0  0  0  0
 34107  1  0  0  0  0
 35 36  1  0  0  0  0
 36 37  1  0  0  0  0
 36 79  1  0  0  0  0
 37108  1  0  0  0  0
 37109  1  0  0  0  0
 37110  1  0  0  0  0
 38111  1  0  0  0  0
 40 41  1  0  0  0  0
 40 42  2  0  0  0  0
 40112  1  0  0  0  0
 41 43  2  0  0  0  0
 41113  1  0  0  0  0
 42 44  1  0  0  0  0
 42114  1  0  0  0  0
 43 45  1  0  0  0  0
 43115  1  0  0  0  0
 44 45  2  0  0  0  0
 44 47  1  0  0  0  0
 45 46  1  0  0  0  0
 46 51  1  0  0  0  0
 46 52  2  0  0  0  0
 47 48  2  0  0  0  0
 47116  1  0  0  0  0
 48 49  1  0  0  0  0
 49 50  1  0  0  0  0
 49 79  1  0  0  0  0
 50117  1  0  0  0  0
 50118  1  0  0  0  0
 50119  1  0  0  0  0
 51120  1  0  0  0  0
 53 54  1  0  0  0  0
 53 55  2  0  0  0  0
 53121  1  0  0  0  0
 54 56  2  0  0  0  0
 54122  1  0  0  0  0
 55 57  1  0  0  0  0
 55123  1  0  0  0  0
 56 58  1  0  0  0  0
 56124  1  0  0  0  0
 57 58  2  0  0  0  0
 57 60  1  0  0  0  0
 58 59  1  0  0  0  0
 59 64  1  0  0  0  0
 59 65  2  0  0  0  0
 60 61  2  0  0  0  0
 60125  1  0  0  0  0
 61 62  1  0  0  0  0
 62 63  1  0  0  0  0
 62 82  1  0  0  0  0
 63126  1  0  0  0  0
 63127  1  0  0  0  0
 63128  1  0  0  0  0
 64129  1  0  0  0  0
 66 67  1  0  0  0  0
 66 68  2  0  0  0  0
 66130  1  0  0  0  0
 67 69  2  0  0  0  0
 67131  1  0  0  0  0
 68 70  1  0  0  0  0
 68132  1  0  0  0  0
 69 71  1  0  0  0  0
 69133  1  0  0  0  0
 70 71  2  0  0  0  0
 70 73  1  0  0  0  0
 71 72  1  0  0  0  0
 72 77  1  0  0  0  0
 72 78  2  0  0  0  0
 73 74  2  0  0  0  0
 73134  1  0  0  0  0
 74 75  1  0  0  0  0
 75 76  1  0  0  0  0
 75 82  1  0  0  0  0
 76135  1  0  0  0  0
 76136  1  0  0  0  0
 76137  1  0  0  0  0
 77138  1  0  0  0  0
 79 80  2  0  0  0  0
 79 81  1  0  0  0  0
 80 82  1  0  0  0  0
 81 83  2  0  0  0  0
 82 84  2  0  0  0  0
 83 84  1  0  0  0  0
M  END
> <NMREDATA_VERSION>
1.1

> <NMREDATA_LEVEL>
0

> <NMREDATA_SOLVENT>
DMSO-d6

> <NMREDATA_FORMULA>
C54H54N15O12P3

> <NMREDATA_SMILES>
OC(=O)c1ccccc1/C=N/N(P1(=NP(=NP(=N1)(N(/N=C/c1ccccc1C(=O)O)C)N(/N=C/c1ccccc1C(=O)O)C)(N(/N=C/c1ccccc1C(=O)O)C)N(/N=C/c1ccccc1C(=O)O)C)N(/N=C/c1ccccc1C(=O)O)C)C

> <NMREDATA_ASSIGNMENT>
P79, 16.90, 79
P82, 16.90, 82
P83, 16.90, 83

> <NMREDATA_1D_31P>
16.90, L=P79
16.90, L=P82
16.90, L=P83

$$$$
