
 OpenBabel08102311392D

 84 90  0  0  0  0  0  0  0  0999 V2000
   17.3160  -15.5274    0.0000 C   0  0  0  0  0  0  0  0  0  0  0  0
   18.4678  -16.1924    0.0000 N   0  0  0  0  0  0  0  0  0  0  0  0
   19.6196  -15.5274    0.0000 P   0  0  0  0  0  0  0  0  0  0  0  0
   17.3160  -14.1974    0.0000 O   0  0  0  0  0  0  0  0  0  0  0  0
   17.6246  -12.0719    0.0000 C   0  0  0  0  0  0  0  0  0  0  0  0
   18.9546  -12.0719    0.0000 C   0  0  0  0  0  0  0  0  0  0  0  0
   16.9596  -13.2237    0.0000 C   0  0  0  0  0  0  0  0  0  0  0  0
   19.6196  -13.2237    0.0000 C   0  0  0  0  0  0  0  0  0  0  0  0
   17.6246  -14.3755    0.0000 C   0  0  0  0  0  0  0  0  0  0  0  0
   18.9546  -14.3755    0.0000 C   0  0  0  0  0  0  0  0  0  0  0  0
   22.2796  -17.8310    0.0000 C   0  0  0  0  0  0  0  0  0  0  0  0
   21.6146  -18.9828    0.0000 C   0  0  0  0  0  0  0  0  0  0  0  0
   21.6146  -16.6792    0.0000 C   0  0  0  0  0  0  0  0  0  0  0  0
   20.2846  -18.9828    0.0000 C   0  0  0  0  0  0  0  0  0  0  0  0
   20.2846  -16.6792    0.0000 C   0  0  0  0  0  0  0  0  0  0  0  0
   19.6196  -17.8310    0.0000 C   0  0  0  0  0  0  0  0  0  0  0  0
   21.9232  -12.8674    0.0000 C   0  0  0  0  0  0  0  0  0  0  0  0
   23.0750  -13.5324    0.0000 C   0  0  0  0  0  0  0  0  0  0  0  0
   20.7714  -13.5324    0.0000 C   0  0  0  0  0  0  0  0  0  0  0  0
   23.0750  -14.8624    0.0000 C   0  0  0  0  0  0  0  0  0  0  0  0
   20.7714  -14.8624    0.0000 C   0  0  0  0  0  0  0  0  0  0  0  0
   21.9232  -15.5274    0.0000 C   0  0  0  0  0  0  0  0  0  0  0  0
   15.5713   -8.1162    0.0000 C   0  0  0  0  0  0  0  0  0  0  0  0
   15.5713   -9.4462    0.0000 C   0  0  0  0  0  0  0  0  0  0  0  0
   14.4194   -7.4512    0.0000 C   0  0  0  0  0  0  0  0  0  0  0  0
   14.4194  -10.1112    0.0000 C   0  0  0  0  0  0  0  0  0  0  0  0
   13.2676   -8.1162    0.0000 C   0  0  0  0  0  0  0  0  0  0  0  0
   13.2676   -9.4462    0.0000 C   0  0  0  0  0  0  0  0  0  0  0  0
   16.7231   -7.4512    0.0000 C   0  0  0  0  0  0  0  0  0  0  0  0
   17.8749   -8.1162    0.0000 N   0  0  0  0  0  0  0  0  0  0  0  0
   19.0267   -7.4512    0.0000 P   0  0  0  0  0  0  0  0  0  0  0  0
   16.7231   -6.1212    0.0000 O   0  0  0  0  0  0  0  0  0  0  0  0
   17.0317   -3.9958    0.0000 C   0  0  0  0  0  0  0  0  0  0  0  0
   18.3617   -3.9958    0.0000 C   0  0  0  0  0  0  0  0  0  0  0  0
   16.3667   -5.1476    0.0000 C   0  0  0  0  0  0  0  0  0  0  0  0
   19.0267   -5.1476    0.0000 C   0  0  0  0  0  0  0  0  0  0  0  0
   17.0317   -6.2994    0.0000 C   0  0  0  0  0  0  0  0  0  0  0  0
   18.3617   -6.2994    0.0000 C   0  0  0  0  0  0  0  0  0  0  0  0
   21.6867   -9.7548    0.0000 C   0  0  0  0  0  0  0  0  0  0  0  0
   21.0217  -10.9067    0.0000 C   0  0  0  0  0  0  0  0  0  0  0  0
   21.0217   -8.6030    0.0000 C   0  0  0  0  0  0  0  0  0  0  0  0
   19.6917  -10.9066    0.0000 C   0  0  0  0  0  0  0  0  0  0  0  0
   19.6917   -8.6030    0.0000 C   0  0  0  0  0  0  0  0  0  0  0  0
   19.0267   -9.7548    0.0000 C   0  0  0  0  0  0  0  0  0  0  0  0
   21.3303   -4.7912    0.0000 C   0  0  0  0  0  0  0  0  0  0  0  0
   22.4821   -5.4562    0.0000 C   0  0  0  0  0  0  0  0  0  0  0  0
   20.1785   -5.4562    0.0000 C   0  0  0  0  0  0  0  0  0  0  0  0
   22.4821   -6.7862    0.0000 C   0  0  0  0  0  0  0  0  0  0  0  0
   20.1785   -6.7862    0.0000 C   0  0  0  0  0  0  0  0  0  0  0  0
   21.3303   -7.4512    0.0000 C   0  0  0  0  0  0  0  0  0  0  0  0
   17.1086  -11.1782    0.0000 H   0  0  0  0  0  0  0  0  0  0  0  0
   19.4706  -11.1782    0.0000 H   0  0  0  0  0  0  0  0  0  0  0  0
   15.9276  -13.2237    0.0000 H   0  0  0  0  0  0  0  0  0  0  0  0
   20.6516  -13.2237    0.0000 H   0  0  0  0  0  0  0  0  0  0  0  0
   17.1086  -15.2692    0.0000 H   0  0  0  0  0  0  0  0  0  0  0  0
   23.3116  -17.8310    0.0000 H   0  0  0  0  0  0  0  0  0  0  0  0
   22.1306  -19.8765    0.0000 H   0  0  0  0  0  0  0  0  0  0  0  0
   22.1306  -15.7855    0.0000 H   0  0  0  0  0  0  0  0  0  0  0  0
   19.7686  -19.8765    0.0000 H   0  0  0  0  0  0  0  0  0  0  0  0
   18.5876  -17.8310    0.0000 H   0  0  0  0  0  0  0  0  0  0  0  0
   21.9232  -11.8354    0.0000 H   0  0  0  0  0  0  0  0  0  0  0  0
   23.9687  -13.0164    0.0000 H   0  0  0  0  0  0  0  0  0  0  0  0
   19.8777  -13.0164    0.0000 H   0  0  0  0  0  0  0  0  0  0  0  0
   23.9687  -15.3784    0.0000 H   0  0  0  0  0  0  0  0  0  0  0  0
   21.9232  -16.5594    0.0000 H   0  0  0  0  0  0  0  0  0  0  0  0
   14.4194   -6.4192    0.0000 H   0  0  0  0  0  0  0  0  0  0  0  0
   14.4194  -11.1432    0.0000 H   0  0  0  0  0  0  0  0  0  0  0  0
   12.3739   -7.6002    0.0000 H   0  0  0  0  0  0  0  0  0  0  0  0
   12.3739   -9.9622    0.0000 H   0  0  0  0  0  0  0  0  0  0  0  0
   16.5157   -3.1021    0.0000 H   0  0  0  0  0  0  0  0  0  0  0  0
   18.8777   -3.1021    0.0000 H   0  0  0  0  0  0  0  0  0  0  0  0
   15.3347   -5.1476    0.0000 H   0  0  0  0  0  0  0  0  0  0  0  0
   20.0587   -5.1476    0.0000 H   0  0  0  0  0  0  0  0  0  0  0  0
   16.5157   -7.1931    0.0000 H   0  0  0  0  0  0  0  0  0  0  0  0
   22.7187   -9.7548    0.0000 H   0  0  0  0  0  0  0  0  0  0  0  0
   21.5377  -11.8004    0.0000 H   0  0  0  0  0  0  0  0  0  0  0  0
   21.5377   -7.7093    0.0000 H   0  0  0  0  0  0  0  0  0  0  0  0
   19.1757  -11.8003    0.0000 H   0  0  0  0  0  0  0  0  0  0  0  0
   17.9947   -9.7548    0.0000 H   0  0  0  0  0  0  0  0  0  0  0  0
   21.3303   -3.7592    0.0000 H   0  0  0  0  0  0  0  0  0  0  0  0
   23.3758   -4.9402    0.0000 H   0  0  0  0  0  0  0  0  0  0  0  0
   19.2848   -4.9402    0.0000 H   0  0  0  0  0  0  0  0  0  0  0  0
   23.3758   -7.3022    0.0000 H   0  0  0  0  0  0  0  0  0  0  0  0
   21.3303   -8.4832    0.0000 H   0  0  0  0  0  0  0  0  0  0  0  0
  1  2  1  0  0  0  0
  1  4  2  0  0  0  0
  1 24  1  0  0  0  0
  2  3  2  0  0  0  0
  3 10  1  0  0  0  0
  3 15  1  0  0  0  0
  3 21  1  0  0  0  0
  5  6  1  0  0  0  0
  5  7  2  0  0  0  0
  5 51  1  0  0  0  0
  6  8  2  0  0  0  0
  6 52  1  0  0  0  0
  7  9  1  0  0  0  0
  7 53  1  0  0  0  0
  8 10  1  0  0  0  0
  8 54  1  0  0  0  0
  9 10  2  0  0  0  0
  9 55  1  0  0  0  0
 11 12  1  0  0  0  0
 11 13  2  0  0  0  0
 11 56  1  0  0  0  0
 12 14  2  0  0  0  0
 12 57  1  0  0  0  0
 13 15  1  0  0  0  0
 13 58  1  0  0  0  0
 14 16  1  0  0  0  0
 14 59  1  0  0  0  0
 15 16  2  0  0  0  0
 16 60  1  0  0  0  0
 17 18  1  0  0  0  0
 17 19  2  0  0  0  0
 17 61  1  0  0  0  0
 18 20  2  0  0  0  0
 18 62  1  0  0  0  0
 19 21  1  0  0  0  0
 19 63  1  0  0  0  0
 20 22  1  0  0  0  0
 20 64  1  0  0  0  0
 21 22  2  0  0  0  0
 22 65  1  0  0  0  0
 23 24  1  0  0  0  0
 23 25  2  0  0  0  0
 23 29  1  0  0  0  0
 24 26  2  0  0  0  0
 25 27  1  0  0  0  0
 25 66  1  0  0  0  0
 26 28  1  0  0  0  0
 26 67  1  0  0  0  0
 27 28  2  0  0  0  0
 27 68  1  0  0  0  0
 28 69  1  0  0  0  0
 29 30  1  0  0  0  0
 29 32  2  0  0  0  0
 30 31  2  0  0  0  0
 31 38  1  0  0  0  0
 31 43  1  0  0  0  0
 31 49  1  0  0  0  0
 33 34  1  0  0  0  0
 33 35  2  0  0  0  0
 33 70  1  0  0  0  0
 34 36  2  0  0  0  0
 34 71  1  0  0  0  0
 35 37  1  0  0  0  0
 35 72  1  0  0  0  0
 36 38  1  0  0  0  0
 36 73  1  0  0  0  0
 37 38  2  0  0  0  0
 37 74  1  0  0  0  0
 39 40  1  0  0  0  0
 39 41  2  0  0  0  0
 39 75  1  0  0  0  0
 40 42  2  0  0  0  0
 40 76  1  0  0  0  0
 41 43  1  0  0  0  0
 41 77  1  0  0  0  0
 42 44  1  0  0  0  0
 42 78  1  0  0  0  0
 43 44  2  0  0  0  0
 44 79  1  0  0  0  0
 45 46  1  0  0  0  0
 45 47  2  0  0  0  0
 45 80  1  0  0  0  0
 46 48  2  0  0  0  0
 46 81  1  0  0  0  0
 47 49  1  0  0  0  0
 47 82  1  0  0  0  0
 48 50  1  0  0  0  0
 48 83  1  0  0  0  0
 49 50  2  0  0  0  0
 50 84  1  0  0  0  0
M  END
> <NMREDATA_VERSION>
1.1

> <NMREDATA_LEVEL>
0

> <NMREDATA_SOLVENT>
CDCl3

> <NMREDATA_FORMULA>
C44H34N2O2P2

> <NMREDATA_SMILES>
O=C(c1ccccc1C(=O)N=P(c1ccccc1)(c1ccccc1)c1ccccc1)N=P(c1ccccc1)(c1ccccc1)c1ccccc1

> <NMREDATA_ASSIGNMENT>
P3, 18.38, 3
P31, 18.38, 31

> <NMREDATA_1D_31P>
18.38, L=P3
18.38, L=P31

$$$$
