
 OpenBabel08102311393D

168176  0  0  0  0  0  0  0  0999 V2000
   22.3217  -14.1651    0.8906 O   0  0  0  0  0  0  0  0  0  0  0  0
   22.3256  -15.3890   -0.1224 P   0  0  2  0  0  0  0  0  0  0  0  0
   21.3438  -16.0871   -0.7259 O   0  0  0  0  0  0  0  0  0  0  0  0
   21.0811  -14.7407    0.3818 C   0  0  2  0  0  0  0  0  0  0  0  0
   20.3837  -13.7438    0.3946 C   0  0  0  0  0  0  0  0  0  0  0  0
   13.6486  -13.3004    0.0707 O   0  0  0  0  0  0  0  0  0  0  0  0
   13.9795  -14.8534    0.0163 P   0  0  2  0  0  0  0  0  0  0  0  0
   15.0929  -15.5468   -0.2922 O   0  0  0  0  0  0  0  0  0  0  0  0
   16.0600  -15.6788   -0.5732 C   0  0  0  0  0  0  0  0  0  0  0  0
   16.3168  -14.3786   -0.6849 C   0  0  0  0  0  0  0  0  0  0  0  0
   14.9717  -13.7877   -0.3053 C   0  0  1  0  0  0  0  0  0  0  0  0
   15.7503  -13.5702   -0.5406 C   0  0  0  0  0  0  0  0  0  0  0  0
   16.7511   -7.0516    0.0567 O   0  0  0  0  0  0  0  0  0  0  0  0
   15.1786   -7.2717    0.0056 P   0  0  1  0  0  0  0  0  0  0  0  0
   14.4073   -8.3630   -0.1675 O   0  0  0  0  0  0  0  0  0  0  0  0
   14.2063   -9.3472   -0.3179 C   0  0  0  0  0  0  0  0  0  0  0  0
   15.4847   -9.7119   -0.3582 C   0  0  0  0  0  0  0  0  0  0  0  0
   16.1703   -8.3745   -0.1490 C   0  0  2  0  0  0  0  0  0  0  0  0
   16.3315   -9.1919   -0.2702 C   0  0  0  0  0  0  0  0  0  0  0  0
   19.4665   -7.2892    0.0000 C   0  0  0  0  0  0  0  0  0  0  0  0
   19.4665   -8.1313    0.0000 C   0  0  0  0  0  0  0  0  0  0  0  0
   18.7372   -6.8682    0.0000 C   0  0  0  0  0  0  0  0  0  0  0  0
   18.7372   -8.5523    0.0000 C   0  0  0  0  0  0  0  0  0  0  0  0
   18.0079   -7.2892    0.0000 C   0  0  0  0  0  0  0  0  0  0  0  0
   18.0079   -8.1313    0.0000 C   0  0  0  0  0  0  0  0  0  0  0  0
   20.3604   -7.1522    0.0000 O   0  0  0  0  0  0  0  0  0  0  0  0
   21.8822   -7.6089    0.0000 P   0  0  1  0  0  0  0  0  0  0  0  0
   22.4806   -8.8161    0.0000 O   0  0  0  0  0  0  0  0  0  0  0  0
   22.5313   -9.8305    0.0000 C   0  0  0  0  0  0  0  0  0  0  0  0
   21.2126  -10.0030    0.0000 C   0  0  0  0  0  0  0  0  0  0  0  0
   20.7358   -8.5625    0.0000 C   0  0  2  0  0  0  0  0  0  0  0  0
   20.4536   -9.3557    0.0000 C   0  0  0  0  0  0  0  0  0  0  0  0
   13.2514  -10.2720   -0.3582 C   0  0  0  0  0  0  0  0  0  0  0  0
   13.5748  -11.5615   -0.3582 C   0  0  0  0  0  0  0  0  0  0  0  0
   15.8081  -11.0013   -0.3582 C   0  0  0  0  0  0  0  0  0  0  0  0
   14.8533  -11.9261   -0.3582 C   0  0  0  0  0  0  0  0  0  0  0  0
   23.3401  -10.8864    0.0000 C   0  0  0  0  0  0  0  0  0  0  0  0
   22.8299  -12.1148    0.0000 C   0  0  0  0  0  0  0  0  0  0  0  0
   20.7026  -11.2313    0.0000 C   0  0  0  0  0  0  0  0  0  0  0  0
   21.5112  -12.2872    0.0000 C   0  0  0  0  0  0  0  0  0  0  0  0
   17.0576  -16.5513   -0.6849 C   0  0  0  0  0  0  0  0  0  0  0  0
   18.3120  -16.1235   -0.6849 C   0  0  0  0  0  0  0  0  0  0  0  0
   17.5712  -13.9509   -0.6849 C   0  0  0  0  0  0  0  0  0  0  0  0
   18.5688  -14.8234   -0.6849 C   0  0  0  0  0  0  0  0  0  0  0  0
   12.6750  -14.9506    0.0163 S   0  0  0  0  0  0  0  0  0  0  0  0
   14.5015   -5.3681    0.0056 S   0  0  0  0  0  0  0  0  0  0  0  0
   23.1385   -5.1277    0.0000 S   0  0  0  0  0  0  0  0  0  0  0  0
   22.7861  -16.8894   -0.1224 S   0  0  0  0  0  0  0  0  0  0  0  0
   15.5274  -12.4988   -0.5406 C   0  0  0  0  0  0  0  0  0  0  0  0
   16.2805  -12.8674   -0.5406 C   0  0  0  0  0  0  0  0  0  0  0  0
   16.2805  -11.7296   -0.5406 C   0  0  0  0  0  0  0  0  0  0  0  0
   17.0336  -12.8674   -0.5406 C   0  0  0  0  0  0  0  0  0  0  0  0
   16.6490  -13.6205   -0.5406 C   0  0  0  0  0  0  0  0  0  0  0  0
   17.4182   -9.0857   -0.2702 C   0  0  0  0  0  0  0  0  0  0  0  0
   17.7868  -10.2234   -0.2702 C   0  0  0  0  0  0  0  0  0  0  0  0
   17.0336   -9.8388   -0.2702 C   0  0  0  0  0  0  0  0  0  0  0  0
   16.6490  -10.5919   -0.2702 C   0  0  0  0  0  0  0  0  0  0  0  0
   17.4182  -10.5919   -0.2702 C   0  0  0  0  0  0  0  0  0  0  0  0
   18.9245   -9.0857    0.0000 C   0  0  0  0  0  0  0  0  0  0  0  0
   18.9245   -9.8388    0.0000 C   0  0  0  0  0  0  0  0  0  0  0  0
   20.0622  -10.2234    0.0000 C   0  0  0  0  0  0  0  0  0  0  0  0
   19.3090  -10.5919    0.0000 C   0  0  0  0  0  0  0  0  0  0  0  0
   19.6776  -10.9765    0.0000 C   0  0  0  0  0  0  0  0  0  0  0  0
   18.9245  -14.0051    0.3946 C   0  0  0  0  0  0  0  0  0  0  0  0
   18.9245  -12.8674    0.3946 C   0  0  0  0  0  0  0  0  0  0  0  0
   20.0622  -12.8674    0.3946 C   0  0  0  0  0  0  0  0  0  0  0  0
   19.3090  -12.1142    0.3946 C   0  0  0  0  0  0  0  0  0  0  0  0
   17.7868  -12.1142    0.3946 C   0  0  0  0  0  0  0  0  0  0  0  0
   14.0051  -16.6490    0.0163 N   0  0  0  0  0  0  0  0  0  0  0  0
   12.4988  -17.4182    0.0163 C   0  0  0  0  0  0  0  0  0  0  0  0
   15.1428  -18.1713    0.0163 C   0  0  0  0  0  0  0  0  0  0  0  0
   23.8439  -15.5274   -0.1224 N   0  0  0  0  0  0  0  0  0  0  0  0
   24.2284  -17.0336   -0.1224 C   0  0  0  0  0  0  0  0  0  0  0  0
   24.9816  -15.1428   -0.1224 C   0  0  0  0  0  0  0  0  0  0  0  0
   23.8439   -7.5634    0.0000 N   0  0  0  0  0  0  0  0  0  0  0  0
   23.8439   -6.4417    0.0000 C   0  0  0  0  0  0  0  0  0  0  0  0
   25.3662   -8.7011    0.0000 C   0  0  0  0  0  0  0  0  0  0  0  0
   16.6490   -5.3040    0.0056 N   0  0  0  0  0  0  0  0  0  0  0  0
   15.5274   -4.5348    0.0056 C   0  0  0  0  0  0  0  0  0  0  0  0
   18.9245   -4.9194    0.0056 C   0  0  0  0  0  0  0  0  0  0  0  0
   21.7054  -15.5727    0.6327 H   0  0  0  0  0  0  0  0  0  0  0  0
   20.6177  -13.1629   -0.4730 H   0  0  0  0  0  0  0  0  0  0  0  0
   20.5988  -13.2378    1.3126 H   0  0  0  0  0  0  0  0  0  0  0  0
   14.0500  -14.2447   -0.0110 H   0  0  0  0  0  0  0  0  0  0  0  0
   16.0204  -13.9455   -1.5055 H   0  0  0  0  0  0  0  0  0  0  0  0
   16.5751  -13.9185    0.0453 H   0  0  0  0  0  0  0  0  0  0  0  0
   15.7560   -7.3946   -0.0342 H   0  0  0  0  0  0  0  0  0  0  0  0
   15.9499   -9.5569   -1.2008 H   0  0  0  0  0  0  0  0  0  0  0  0
   15.9045   -9.8862    0.4229 H   0  0  0  0  0  0  0  0  0  0  0  0
   18.7372   -5.8362    0.0000 H   0  0  0  0  0  0  0  0  0  0  0  0
   18.7372   -9.5843    0.0000 H   0  0  0  0  0  0  0  0  0  0  0  0
   21.2973   -7.6517    0.0000 H   0  0  0  0  0  0  0  0  0  0  0  0
   20.7644   -9.8896    0.8737 H   0  0  0  0  0  0  0  0  0  0  0  0
   20.8079   -9.9644   -0.8055 H   0  0  0  0  0  0  0  0  0  0  0  0
   12.2595   -9.9887   -0.3895 H   0  0  0  0  0  0  0  0  0  0  0  0
   16.8005  -11.2843   -0.3582 H   0  0  0  0  0  0  0  0  0  0  0  0
   24.3634  -10.7526    0.0000 H   0  0  0  0  0  0  0  0  0  0  0  0
   19.6793  -11.3651    0.0000 H   0  0  0  0  0  0  0  0  0  0  0  0
   16.8553  -17.5596   -0.7714 H   0  0  0  0  0  0  0  0  0  0  0  0
   17.7712  -12.9385   -0.6849 H   0  0  0  0  0  0  0  0  0  0  0  0
   15.1485  -12.0109    0.3331 H   0  0  0  0  0  0  0  0  0  0  0  0
   14.9821  -11.7967   -1.1361 H   0  0  0  0  0  0  0  0  0  0  0  0
   16.6075  -13.3915   -1.4143 H   0  0  0  0  0  0  0  0  0  0  0  0
   16.7381  -13.6008    0.0899 H   0  0  0  0  0  0  0  0  0  0  0  0
   16.1025  -11.1380    0.3331 H   0  0  0  0  0  0  0  0  0  0  0  0
   16.0173  -10.8550   -1.0980 H   0  0  0  0  0  0  0  0  0  0  0  0
   17.6504  -12.8327    0.3331 H   0  0  0  0  0  0  0  0  0  0  0  0
   17.5323  -12.8393   -1.4869 H   0  0  0  0  0  0  0  0  0  0  0  0
   16.1141  -13.7478    0.3773 H   0  0  0  0  0  0  0  0  0  0  0  0
   17.3811  -14.3949   -0.6372 H   0  0  0  0  0  0  0  0  0  0  0  0
   15.9651  -13.6718   -1.3620 H   0  0  0  0  0  0  0  0  0  0  0  0
   17.7568   -8.5690    0.6035 H   0  0  0  0  0  0  0  0  0  0  0  0
   17.7923   -8.5148   -1.0943 H   0  0  0  0  0  0  0  0  0  0  0  0
   18.1876  -10.6935    0.6035 H   0  0  0  0  0  0  0  0  0  0  0  0
   18.3708  -10.9084   -0.8487 H   0  0  0  0  0  0  0  0  0  0  0  0
   16.8432   -9.2511   -1.1439 H   0  0  0  0  0  0  0  0  0  0  0  0
   16.7976   -9.1102    0.4770 H   0  0  0  0  0  0  0  0  0  0  0  0
   16.1221  -10.9144   -1.1439 H   0  0  0  0  0  0  0  0  0  0  0  0
   15.9097  -11.0445    0.3570 H   0  0  0  0  0  0  0  0  0  0  0  0
   17.7749  -10.0016   -1.0883 H   0  0  0  0  0  0  0  0  0  0  0  0
   17.7749  -11.5955   -0.3724 H   0  0  0  0  0  0  0  0  0  0  0  0
   17.7749  -10.1786    0.6500 H   0  0  0  0  0  0  0  0  0  0  0  0
   18.5275   -8.6124   -0.8737 H   0  0  0  0  0  0  0  0  0  0  0  0
   18.4018   -8.4627    0.6954 H   0  0  0  0  0  0  0  0  0  0  0  0
   18.4226  -10.1990   -0.8737 H   0  0  0  0  0  0  0  0  0  0  0  0
   18.4161  -10.2036    0.8680 H   0  0  0  0  0  0  0  0  0  0  0  0
   20.6787  -10.1836    0.8737 H   0  0  0  0  0  0  0  0  0  0  0  0
   20.9608  -10.1654   -0.5780 H   0  0  0  0  0  0  0  0  0  0  0  0
   18.7008  -10.4838   -0.8737 H   0  0  0  0  0  0  0  0  0  0  0  0
   18.4810  -10.4448    0.6616 H   0  0  0  0  0  0  0  0  0  0  0  0
   20.3612  -10.8153   -0.8072 H   0  0  0  0  0  0  0  0  0  0  0  0
   19.2013  -11.9270   -0.1204 H   0  0  0  0  0  0  0  0  0  0  0  0
   20.2106  -10.9597    0.9276 H   0  0  0  0  0  0  0  0  0  0  0  0
   18.5280  -14.4789    1.2683 H   0  0  0  0  0  0  0  0  0  0  0  0
   18.4022  -14.6292   -0.3001 H   0  0  0  0  0  0  0  0  0  0  0  0
   18.4877  -12.4306    1.2683 H   0  0  0  0  0  0  0  0  0  0  0  0
   18.3830  -12.3259   -0.3526 H   0  0  0  0  0  0  0  0  0  0  0  0
   20.6329  -13.1038   -0.4791 H   0  0  0  0  0  0  0  0  0  0  0  0
   20.8938  -13.2119    0.9731 H   0  0  0  0  0  0  0  0  0  0  0  0
   19.5454  -11.5435   -0.4791 H   0  0  0  0  0  0  0  0  0  0  0  0
   19.4009  -11.8924    1.4373 H   0  0  0  0  0  0  0  0  0  0  0  0
   17.4301  -12.3241   -0.5921 H   0  0  0  0  0  0  0  0  0  0  0  0
   17.4301  -11.1547    0.7062 H   0  0  0  0  0  0  0  0  0  0  0  0
   17.4301  -12.8638    1.0698 H   0  0  0  0  0  0  0  0  0  0  0  0
   11.7224  -16.6820    0.0163 H   0  0  0  0  0  0  0  0  0  0  0  0
   12.4105  -18.0296    0.8900 H   0  0  0  0  0  0  0  0  0  0  0  0
   12.4105  -18.0296   -0.8573 H   0  0  0  0  0  0  0  0  0  0  0  0
   16.1644  -17.8531    0.0163 H   0  0  0  0  0  0  0  0  0  0  0  0
   14.9523  -18.7590   -0.8574 H   0  0  0  0  0  0  0  0  0  0  0  0
   14.9523  -18.7590    0.8899 H   0  0  0  0  0  0  0  0  0  0  0  0
   23.3392  -17.6287   -0.1224 H   0  0  0  0  0  0  0  0  0  0  0  0
   24.8053  -17.2544    0.7513 H   0  0  0  0  0  0  0  0  0  0  0  0
   24.8054  -17.2544   -0.9960 H   0  0  0  0  0  0  0  0  0  0  0  0
   24.9964  -14.0729   -0.1224 H   0  0  0  0  0  0  0  0  0  0  0  0
   25.4810  -15.5064   -0.9961 H   0  0  0  0  0  0  0  0  0  0  0  0
   25.4810  -15.5064    0.7512 H   0  0  0  0  0  0  0  0  0  0  0  0
   22.8351   -6.0850    0.0000 H   0  0  0  0  0  0  0  0  0  0  0  0
   24.3483   -6.0850   -0.8737 H   0  0  0  0  0  0  0  0  0  0  0  0
   24.3483   -6.0850    0.8736 H   0  0  0  0  0  0  0  0  0  0  0  0
   25.0480   -9.7227    0.0000 H   0  0  0  0  0  0  0  0  0  0  0  0
   25.9539   -8.5106    0.8737 H   0  0  0  0  0  0  0  0  0  0  0  0
   25.9539   -8.5106   -0.8736 H   0  0  0  0  0  0  0  0  0  0  0  0
   14.6627   -5.1650    0.0056 H   0  0  0  0  0  0  0  0  0  0  0  0
   15.5185   -3.9171   -0.8681 H   0  0  0  0  0  0  0  0  0  0  0  0
   15.5185   -3.9171    0.8792 H   0  0  0  0  0  0  0  0  0  0  0  0
   19.4443   -5.8547    0.0056 H   0  0  0  0  0  0  0  0  0  0  0  0
   19.1921   -4.3626    0.8793 H   0  0  0  0  0  0  0  0  0  0  0  0
   19.1921   -4.3626   -0.8680 H   0  0  0  0  0  0  0  0  0  0  0  0
  1  2  1  0  0  0  0
  1 38  1  0  0  0  0
  2  3  1  0  0  0  0
  2 48  2  1  0  0  0
  2 72  1  0  0  0  0
  3 42  1  0  0  0  0
  4 40  1  0  0  0  0
  4 44  1  0  0  0  0
  4 81  1  1  0  0  0
  5  4  1  0  0  0  0
  5 64  1  0  0  0  0
  5 82  1  0  0  0  0
  5 83  1  0  0  0  0
  6  7  1  0  0  0  0
  6 34  1  0  0  0  0
  7  8  1  0  0  0  0
  7 45  2  6  0  0  0
  7 69  1  0  0  0  0
  8  9  1  0  0  0  0
  9 41  1  0  0  0  0
  9 10  2  0  0  0  0
 10 11  1  0  0  0  0
 10 43  1  0  0  0  0
 11 36  1  0  0  0  0
 11 84  1  1  0  0  0
 12 11  1  0  0  0  0
 12 49  1  0  0  0  0
 12 85  1  0  0  0  0
 12 86  1  0  0  0  0
 13 14  1  0  0  0  0
 13 24  1  0  0  0  0
 14 15  1  0  0  0  0
 14 46  2  1  0  0  0
 14 78  1  0  0  0  0
 15 16  1  0  0  0  0
 16 33  1  0  0  0  0
 16 17  2  0  0  0  0
 17 18  1  0  0  0  0
 17 35  1  0  0  0  0
 18 87  1  6  0  0  0
 19 18  1  0  0  0  0
 19 54  1  0  0  0  0
 19 88  1  0  0  0  0
 19 89  1  0  0  0  0
 20 21  1  0  0  0  0
 20 22  2  0  0  0  0
 20 26  1  0  0  0  0
 21 23  2  0  0  0  0
 22 24  1  0  0  0  0
 22 90  1  0  0  0  0
 23 25  1  0  0  0  0
 23 91  1  0  0  0  0
 24 25  2  0  0  0  0
 25 18  1  0  0  0  0
 26 27  1  0  0  0  0
 27 28  1  0  0  0  0
 27 47  2  6  0  0  0
 27 75  1  0  0  0  0
 28 29  1  0  0  0  0
 29 37  1  0  0  0  0
 29 30  2  0  0  0  0
 30 31  1  0  0  0  0
 30 39  1  0  0  0  0
 31 21  1  0  0  0  0
 31 92  1  1  0  0  0
 32 31  1  0  0  0  0
 32 59  1  0  0  0  0
 32 93  1  0  0  0  0
 32 94  1  0  0  0  0
 33 34  2  0  0  0  0
 33 95  1  0  0  0  0
 34 36  1  0  0  0  0
 35 36  2  0  0  0  0
 35 96  1  0  0  0  0
 37 38  2  0  0  0  0
 37 97  1  0  0  0  0
 38 40  1  0  0  0  0
 39 40  2  0  0  0  0
 39 98  1  0  0  0  0
 41 42  2  0  0  0  0
 41 99  1  0  0  0  0
 42 44  1  0  0  0  0
 43 44  2  0  0  0  0
 43100  1  0  0  0  0
 49 50  1  0  0  0  0
 49101  1  0  0  0  0
 49102  1  0  0  0  0
 50 51  1  0  0  0  0
 50103  1  0  0  0  0
 50104  1  0  0  0  0
 51 52  1  0  0  0  0
 51105  1  0  0  0  0
 51106  1  0  0  0  0
 52 53  1  0  0  0  0
 52107  1  0  0  0  0
 52108  1  0  0  0  0
 53109  1  0  0  0  0
 53110  1  0  0  0  0
 53111  1  0  0  0  0
 54 55  1  0  0  0  0
 54112  1  0  0  0  0
 54113  1  0  0  0  0
 55 56  1  0  0  0  0
 55114  1  0  0  0  0
 55115  1  0  0  0  0
 56 57  1  0  0  0  0
 56116  1  0  0  0  0
 56117  1  0  0  0  0
 57 58  1  0  0  0  0
 57118  1  0  0  0  0
 57119  1  0  0  0  0
 58120  1  0  0  0  0
 58121  1  0  0  0  0
 58122  1  0  0  0  0
 59 60  1  0  0  0  0
 59123  1  0  0  0  0
 59124  1  0  0  0  0
 60 61  1  0  0  0  0
 60125  1  0  0  0  0
 60126  1  0  0  0  0
 61 62  1  0  0  0  0
 61127  1  0  0  0  0
 61128  1  0  0  0  0
 62 63  1  0  0  0  0
 62129  1  0  0  0  0
 62130  1  0  0  0  0
 63131  1  0  0  0  0
 63132  1  0  0  0  0
 63133  1  0  0  0  0
 64 65  1  0  0  0  0
 64134  1  0  0  0  0
 64135  1  0  0  0  0
 65 66  1  0  0  0  0
 65136  1  0  0  0  0
 65137  1  0  0  0  0
 66 67  1  0  0  0  0
 66138  1  0  0  0  0
 66139  1  0  0  0  0
 67 68  1  0  0  0  0
 67140  1  0  0  0  0
 67141  1  0  0  0  0
 68142  1  0  0  0  0
 68143  1  0  0  0  0
 68144  1  0  0  0  0
 69 70  1  0  0  0  0
 69 71  1  0  0  0  0
 70145  1  0  0  0  0
 70146  1  0  0  0  0
 70147  1  0  0  0  0
 71148  1  0  0  0  0
 71149  1  0  0  0  0
 71150  1  0  0  0  0
 72 73  1  0  0  0  0
 72 74  1  0  0  0  0
 73151  1  0  0  0  0
 73152  1  0  0  0  0
 73153  1  0  0  0  0
 74154  1  0  0  0  0
 74155  1  0  0  0  0
 74156  1  0  0  0  0
 75 76  1  0  0  0  0
 75 77  1  0  0  0  0
 76157  1  0  0  0  0
 76158  1  0  0  0  0
 76159  1  0  0  0  0
 77160  1  0  0  0  0
 77161  1  0  0  0  0
 77162  1  0  0  0  0
 78 79  1  0  0  0  0
 78 80  1  0  0  0  0
 79163  1  0  0  0  0
 79164  1  0  0  0  0
 79165  1  0  0  0  0
 80166  1  0  0  0  0
 80167  1  0  0  0  0
 80168  1  0  0  0  0
M  END
> <NMREDATA_VERSION>
1.1

> <NMREDATA_LEVEL>
0

> <NMREDATA_SOLVENT>
C6D6

> <NMREDATA_FORMULA>
C60H88N4O8P4S4

> <NMREDATA_SMILES>
CCCCCC[C@@H]1c2cc3c4cc2O[P@](=S)(Oc2c1cc1c(c2)O[P@@](=S)(Oc2c([C@H]1CCCCCC)cc1[C@@H](c5cc([C@H]3CCCCCC)c(O[P@@](=S)(O4)N(C)C)cc5O[P@@](=S)(Oc1c2)N(C)C)CCCCCC)N(C)C)N(C)C

> <NMREDATA_ASSIGNMENT>
P2, 70.88, 2
P7, 70.88, 7
P14, 70.88, 14
P27, 70.88, 27

> <NMREDATA_1D_31P>
70.88, L=P2
70.88, L=P7
70.88, L=P14
70.88, L=P27

$$$$
