
 OpenBabel08102311393D

 71 75  0  0  0  0  0  0  0  0999 V2000
   13.0110  -13.4552    0.0000 C   0  0  0  0  0  0  0  0  0  0  0  0
   13.0110  -14.7852    0.0000 C   0  0  0  0  0  0  0  0  0  0  0  0
   11.8591  -12.7902    0.0000 C   0  0  0  0  0  0  0  0  0  0  0  0
   11.8591  -15.4502    0.0000 C   0  0  0  0  0  0  0  0  0  0  0  0
   10.7073  -13.4552    0.0000 C   0  0  0  0  0  0  0  0  0  0  0  0
   10.7073  -14.7852    0.0000 C   0  0  0  0  0  0  0  0  0  0  0  0
   19.8827  -11.3715    0.0000 C   0  0  0  0  0  0  0  0  0  0  0  0
   19.8827  -12.7015    0.0000 C   0  0  0  0  0  0  0  0  0  0  0  0
   18.7308  -10.7065    0.0000 C   0  0  0  0  0  0  0  0  0  0  0  0
   18.7308  -13.3665    0.0000 N   0  0  0  0  0  0  0  0  0  0  0  0
   17.5790  -11.3715    0.0000 C   0  0  0  0  0  0  0  0  0  0  0  0
   17.5790  -12.7015    0.0000 C   0  0  0  0  0  0  0  0  0  0  0  0
   13.2335  -11.1498    0.0000 C   0  0  3  0  0  0  0  0  0  0  0  0
   11.4158  -11.1277    0.0000 P   0  0  0  0  0  0  0  0  0  0  0  0
   11.2607   -9.0218    0.0000 O   0  0  0  0  0  0  0  0  0  0  0  0
    8.4233  -10.4848    0.0000 O   0  0  0  0  0  0  0  0  0  0  0  0
    8.4898  -12.4798    0.0000 O   0  0  0  0  0  0  0  0  0  0  0  0
   15.0068  -12.3690    0.0000 O   0  0  0  0  0  0  0  0  0  0  0  0
   15.6940  -14.0315    0.0000 C   0  0  0  0  0  0  0  0  0  0  0  0
   15.5832  -15.5832    0.0000 O   0  0  0  0  0  0  0  0  0  0  0  0
   11.5825  -16.7510    0.0000 O   0  0  0  0  0  0  0  0  0  0  0  0
   10.2599  -16.8900    0.0000 C   0  0  0  0  0  0  0  0  0  0  0  0
    9.7189  -15.6752    0.0000 O   0  0  0  0  0  0  0  0  0  0  0  0
    7.5367   -8.7558    0.0000 C   0  0  0  0  0  0  0  0  0  0  0  0
    6.6500  -10.6843    0.0000 C   0  0  0  0  0  0  0  0  0  0  0  0
   21.0140  -14.0093    0.0000 C   0  0  0  0  0  0  0  0  0  0  0  0
   21.2800  -16.2925    0.0000 O   0  0  0  0  0  0  0  0  0  0  0  0
   22.2110  -12.7015    0.0000 O   0  0  0  0  0  0  0  0  0  0  0  0
   23.9843  -12.8567    0.0000 C   0  0  3  0  0  0  0  0  0  0  0  0
   25.9793  -11.7927    0.0000 P   0  0  0  0  0  0  0  0  0  0  0  0
   25.9350   -9.1548    0.0000 O   0  0  0  0  0  0  0  0  0  0  0  0
   28.8167  -11.0833    0.0000 O   0  0  0  0  0  0  0  0  0  0  0  0
   29.6590  -12.7015    0.0000 O   0  0  0  0  0  0  0  0  0  0  0  0
   24.2503  -14.1598    0.0000 C   0  0  0  0  0  0  0  0  0  0  0  0
   25.5118  -14.5810    0.0000 C   0  0  0  0  0  0  0  0  0  0  0  0
   23.2547  -15.0418    0.0000 C   0  0  0  0  0  0  0  0  0  0  0  0
   25.7778  -15.8843    0.0000 C   0  0  0  0  0  0  0  0  0  0  0  0
   23.5207  -16.3449    0.0000 C   0  0  0  0  0  0  0  0  0  0  0  0
   24.7822  -16.7661    0.0000 C   0  0  0  0  0  0  0  0  0  0  0  0
   22.7303  -17.4145    0.0000 O   0  0  0  0  0  0  0  0  0  0  0  0
   23.5032  -18.4967    0.0000 C   0  0  0  0  0  0  0  0  0  0  0  0
   24.7714  -18.0962    0.0000 O   0  0  0  0  0  0  0  0  0  0  0  0
   29.5925   -9.0883    0.0000 C   0  0  0  0  0  0  0  0  0  0  0  0
   30.3018  -10.7952    0.0000 C   0  0  0  0  0  0  0  0  0  0  0  0
   13.9047  -12.9392    0.0000 H   0  0  0  0  0  0  0  0  0  0  0  0
   13.9047  -15.3012    0.0000 H   0  0  0  0  0  0  0  0  0  0  0  0
    9.8136  -12.9392    0.0000 H   0  0  0  0  0  0  0  0  0  0  0  0
   20.7764  -10.8555    0.0000 H   0  0  0  0  0  0  0  0  0  0  0  0
   18.7308   -9.6745    0.0000 H   0  0  0  0  0  0  0  0  0  0  0  0
   16.6853  -10.8555    0.0000 H   0  0  0  0  0  0  0  0  0  0  0  0
   13.7969  -10.2401    0.0000 H   0  0  0  0  0  0  0  0  0  0  0  0
    9.9510  -17.4250    0.8737 H   0  0  0  0  0  0  0  0  0  0  0  0
    9.9438  -17.4376   -0.8632 H   0  0  0  0  0  0  0  0  0  0  0  0
    6.4763   -8.8987    0.0000 H   0  0  0  0  0  0  0  0  0  0  0  0
    7.8228   -8.2083   -0.8737 H   0  0  0  0  0  0  0  0  0  0  0  0
    7.8228   -8.2083    0.8736 H   0  0  0  0  0  0  0  0  0  0  0  0
    5.6902  -11.1572    0.0000 H   0  0  0  0  0  0  0  0  0  0  0  0
    6.7470  -10.0742   -0.8737 H   0  0  0  0  0  0  0  0  0  0  0  0
    6.7470  -10.0742    0.8736 H   0  0  0  0  0  0  0  0  0  0  0  0
   23.7703  -11.8083    0.0000 H   0  0  0  0  0  0  0  0  0  0  0  0
   26.2843  -13.8967    0.0000 H   0  0  0  0  0  0  0  0  0  0  0  0
   22.2758  -14.7150    0.0000 H   0  0  0  0  0  0  0  0  0  0  0  0
   26.7567  -16.2112    0.0000 H   0  0  0  0  0  0  0  0  0  0  0  0
   23.3075  -19.0826   -0.8737 H   0  0  0  0  0  0  0  0  0  0  0  0
   23.3029  -19.0964    0.8632 H   0  0  0  0  0  0  0  0  0  0  0  0
   30.6620   -9.1215    0.0000 H   0  0  0  0  0  0  0  0  0  0  0  0
   29.2517   -8.5731    0.8737 H   0  0  0  0  0  0  0  0  0  0  0  0
   29.2517   -8.5731   -0.8736 H   0  0  0  0  0  0  0  0  0  0  0  0
   31.3717  -10.7796    0.0000 H   0  0  0  0  0  0  0  0  0  0  0  0
   29.9378  -10.2961    0.8737 H   0  0  0  0  0  0  0  0  0  0  0  0
   29.9378  -10.2961   -0.8736 H   0  0  0  0  0  0  0  0  0  0  0  0
  1  2  1  0  0  0  0
  1  3  2  0  0  0  0
  1 45  1  0  0  0  0
  2  4  2  0  0  0  0
  2 46  1  0  0  0  0
  3  5  1  0  0  0  0
  3 13  1  0  0  0  0
  4 21  1  0  0  0  0
  4  6  1  0  0  0  0
  5  6  2  0  0  0  0
  5 47  1  0  0  0  0
  6 23  1  0  0  0  0
  7  8  1  0  0  0  0
  7  9  2  0  0  0  0
  7 48  1  0  0  0  0
  8 10  2  0  0  0  0
  8 26  1  0  0  0  0
  9 11  1  0  0  0  0
  9 49  1  0  0  0  0
 10 12  1  0  0  0  0
 11 12  2  0  0  0  0
 11 50  1  0  0  0  0
 12 19  1  0  0  0  0
 13 14  1  0  0  0  0
 13 18  1  0  0  0  0
 13 51  1  0  0  0  0
 14 15  2  0  0  0  0
 14 16  1  0  0  0  0
 14 17  1  0  0  0  0
 16 24  1  0  0  0  0
 17 25  1  0  0  0  0
 18 19  1  0  0  0  0
 19 20  2  0  0  0  0
 21 22  1  0  0  0  0
 22 23  1  0  0  0  0
 22 52  1  0  0  0  0
 22 53  1  0  0  0  0
 24 54  1  0  0  0  0
 24 55  1  0  0  0  0
 24 56  1  0  0  0  0
 25 57  1  0  0  0  0
 25 58  1  0  0  0  0
 25 59  1  0  0  0  0
 26 27  2  0  0  0  0
 26 28  1  0  0  0  0
 28 29  1  0  0  0  0
 29 30  1  0  0  0  0
 29 34  1  0  0  0  0
 29 60  1  0  0  0  0
 30 31  2  0  0  0  0
 30 32  1  0  0  0  0
 30 33  1  0  0  0  0
 32 43  1  0  0  0  0
 33 44  1  0  0  0  0
 34 35  1  0  0  0  0
 34 36  2  0  0  0  0
 35 37  2  0  0  0  0
 35 61  1  0  0  0  0
 36 38  1  0  0  0  0
 36 62  1  0  0  0  0
 37 39  1  0  0  0  0
 37 63  1  0  0  0  0
 38 39  2  0  0  0  0
 38 40  1  0  0  0  0
 39 42  1  0  0  0  0
 40 41  1  0  0  0  0
 41 42  1  0  0  0  0
 41 64  1  0  0  0  0
 41 65  1  0  0  0  0
 43 66  1  0  0  0  0
 43 67  1  0  0  0  0
 43 68  1  0  0  0  0
 44 69  1  0  0  0  0
 44 70  1  0  0  0  0
 44 71  1  0  0  0  0
M  END
> <NMREDATA_VERSION>
1.1

> <NMREDATA_LEVEL>
0

> <NMREDATA_SOLVENT>
CHCl3

> <NMREDATA_FORMULA>
C27H27NO14P2

> <NMREDATA_SMILES>
COP(=O)(C(c1ccc2c(c1)OCO2)OC(=O)c1cccc(n1)C(=O)OC(P(=O)(OC)OC)c1ccc2c(c1)OCO2)OC

> <NMREDATA_ASSIGNMENT>
P14, 18.64, 14
P30, 18.64, 30

> <NMREDATA_1D_31P>
18.64, L=P14
18.64, L=P30

$$$$
