
 OpenBabel08102311392D

 72 75  0  0  0  0  0  0  0  0999 V2000
   13.4263  -16.0642    0.0000 C   0  0  0  0  0  0  0  0  0  0  0  0
   13.4263  -17.3942    0.0000 C   0  0  0  0  0  0  0  0  0  0  0  0
   12.2744  -15.3992    0.0000 C   0  0  0  0  0  0  0  0  0  0  0  0
   12.2744  -18.0592    0.0000 C   0  0  0  0  0  0  0  0  0  0  0  0
   11.1226  -16.0642    0.0000 C   0  0  0  0  0  0  0  0  0  0  0  0
   11.1226  -17.3942    0.0000 C   0  0  0  0  0  0  0  0  0  0  0  0
   14.6912  -15.6532    0.0000 P   0  0  3  0  0  0  0  0  0  0  0  0
   15.4729  -16.7292    0.0000 P   0  0  3  0  0  0  0  0  0  0  0  0
   14.6913  -17.8052    0.0000 O   0  0  0  0  0  0  0  0  0  0  0  0
   15.4729  -14.5773    0.0000 O   0  0  0  0  0  0  0  0  0  0  0  0
   16.7377  -14.9883    0.0000 C   0  0  0  0  0  0  0  0  0  0  0  0
   16.7379  -16.3181    0.0000 C   0  0  0  0  0  0  0  0  0  0  0  0
   17.8893  -14.3233    0.0000 C   0  0  0  0  0  0  0  0  0  0  0  0
   19.0410  -14.9882    0.0000 C   0  0  0  0  0  0  0  0  0  0  0  0
   17.8895  -16.9829    0.0000 C   0  0  0  0  0  0  0  0  0  0  0  0
   19.0411  -16.3179    0.0000 C   0  0  0  0  0  0  0  0  0  0  0  0
   17.8892  -12.9933    0.0000 C   0  0  0  0  0  0  0  0  0  0  0  0
   19.0410  -12.3282    0.0000 C   0  0  0  0  0  0  0  0  0  0  0  0
   16.7373  -12.3284    0.0000 C   0  0  0  0  0  0  0  0  0  0  0  0
   16.7374  -13.6584    0.0000 C   0  0  0  0  0  0  0  0  0  0  0  0
   20.1929  -16.9828    0.0000 C   0  0  0  0  0  0  0  0  0  0  0  0
   20.1930  -18.3128    0.0000 C   0  0  0  0  0  0  0  0  0  0  0  0
   21.3447  -16.3178    0.0000 C   0  0  0  0  0  0  0  0  0  0  0  0
   20.1929  -15.6528    0.0000 C   0  0  0  0  0  0  0  0  0  0  0  0
   12.2744  -19.3892    0.0000 C   0  0  0  0  0  0  0  0  0  0  0  0
   11.1225  -20.0541    0.0000 C   0  0  0  0  0  0  0  0  0  0  0  0
   13.4262  -20.0542    0.0000 C   0  0  0  0  0  0  0  0  0  0  0  0
   13.4262  -18.7242    0.0000 C   0  0  0  0  0  0  0  0  0  0  0  0
    9.9708  -15.3992    0.0000 C   0  0  0  0  0  0  0  0  0  0  0  0
    9.9708  -14.0692    0.0000 C   0  0  0  0  0  0  0  0  0  0  0  0
    8.8190  -16.0642    0.0000 C   0  0  0  0  0  0  0  0  0  0  0  0
    9.9708  -16.7292    0.0000 C   0  0  0  0  0  0  0  0  0  0  0  0
   12.2744  -14.3672    0.0000 H   0  0  0  0  0  0  0  0  0  0  0  0
   10.2289  -17.9102    0.0000 H   0  0  0  0  0  0  0  0  0  0  0  0
   19.9347  -14.4722    0.0000 H   0  0  0  0  0  0  0  0  0  0  0  0
   17.8896  -18.0149    0.0000 H   0  0  0  0  0  0  0  0  0  0  0  0
   19.9677  -12.8631    0.0000 H   0  0  0  0  0  0  0  0  0  0  0  0
   19.0409  -11.2582    0.0000 H   0  0  0  0  0  0  0  0  0  0  0  0
   19.9676  -11.7931    0.0000 H   0  0  0  0  0  0  0  0  0  0  0  0
   16.7372  -11.2584    0.0000 H   0  0  0  0  0  0  0  0  0  0  0  0
   15.8107  -12.8635    0.0000 H   0  0  0  0  0  0  0  0  0  0  0  0
   15.8106  -11.7935    0.0000 H   0  0  0  0  0  0  0  0  0  0  0  0
   15.8107  -13.1235    0.0000 H   0  0  0  0  0  0  0  0  0  0  0  0
   16.7375  -14.7284    0.0000 H   0  0  0  0  0  0  0  0  0  0  0  0
   15.8108  -14.1935    0.0000 H   0  0  0  0  0  0  0  0  0  0  0  0
   19.2664  -18.8479    0.0000 H   0  0  0  0  0  0  0  0  0  0  0  0
   21.1197  -18.8477    0.0000 H   0  0  0  0  0  0  0  0  0  0  0  0
   20.1931  -19.3828    0.0000 H   0  0  0  0  0  0  0  0  0  0  0  0
   22.2713  -16.8528    0.0000 H   0  0  0  0  0  0  0  0  0  0  0  0
   21.3447  -15.2478    0.0000 H   0  0  0  0  0  0  0  0  0  0  0  0
   22.2713  -15.7828    0.0000 H   0  0  0  0  0  0  0  0  0  0  0  0
   21.1195  -15.1178    0.0000 H   0  0  0  0  0  0  0  0  0  0  0  0
   19.2663  -15.1178    0.0000 H   0  0  0  0  0  0  0  0  0  0  0  0
   20.1929  -14.5828    0.0000 H   0  0  0  0  0  0  0  0  0  0  0  0
   10.1959  -19.5190    0.0000 H   0  0  0  0  0  0  0  0  0  0  0  0
   11.1224  -21.1241    0.0000 H   0  0  0  0  0  0  0  0  0  0  0  0
   10.1958  -20.5890    0.0000 H   0  0  0  0  0  0  0  0  0  0  0  0
   13.4262  -21.1242    0.0000 H   0  0  0  0  0  0  0  0  0  0  0  0
   14.3528  -19.5192    0.0000 H   0  0  0  0  0  0  0  0  0  0  0  0
   14.3528  -20.5892    0.0000 H   0  0  0  0  0  0  0  0  0  0  0  0
   14.3528  -19.2592    0.0000 H   0  0  0  0  0  0  0  0  0  0  0  0
   13.4262  -17.6542    0.0000 H   0  0  0  0  0  0  0  0  0  0  0  0
   14.3528  -18.1892    0.0000 H   0  0  0  0  0  0  0  0  0  0  0  0
   10.8974  -13.5342    0.0000 H   0  0  0  0  0  0  0  0  0  0  0  0
    9.0442  -13.5342    0.0000 H   0  0  0  0  0  0  0  0  0  0  0  0
    9.9708  -12.9992    0.0000 H   0  0  0  0  0  0  0  0  0  0  0  0
    7.8924  -15.5292    0.0000 H   0  0  0  0  0  0  0  0  0  0  0  0
    8.8190  -17.1342    0.0000 H   0  0  0  0  0  0  0  0  0  0  0  0
    7.8924  -16.5992    0.0000 H   0  0  0  0  0  0  0  0  0  0  0  0
    9.0442  -17.2642    0.0000 H   0  0  0  0  0  0  0  0  0  0  0  0
   10.8974  -17.2642    0.0000 H   0  0  0  0  0  0  0  0  0  0  0  0
    9.9708  -17.7992    0.0000 H   0  0  0  0  0  0  0  0  0  0  0  0
  1  3  2  0  0  0  0
  1  7  1  0  0  0  0
  1  2  1  0  0  0  0
  2  4  2  0  0  0  0
  2  9  1  0  0  0  0
  3  5  1  0  0  0  0
  3 33  1  0  0  0  0
  4  6  1  0  0  0  0
  4 25  1  0  0  0  0
  5  6  2  0  0  0  0
  5 29  1  0  0  0  0
  6 34  1  0  0  0  0
  7 10  1  0  0  0  0
  7  8  1  0  0  0  0
  8  9  1  0  0  0  0
  8 12  1  0  0  0  0
 10 11  1  0  0  0  0
 11 13  1  0  0  0  0
 11 12  2  0  0  0  0
 12 15  1  0  0  0  0
 13 14  2  0  0  0  0
 13 17  1  0  0  0  0
 14 16  1  0  0  0  0
 14 35  1  0  0  0  0
 15 16  2  0  0  0  0
 15 36  1  0  0  0  0
 16 21  1  0  0  0  0
 17 18  1  0  0  0  0
 17 19  1  0  0  0  0
 17 20  1  0  0  0  0
 18 37  1  0  0  0  0
 18 38  1  0  0  0  0
 18 39  1  0  0  0  0
 19 40  1  0  0  0  0
 19 41  1  0  0  0  0
 19 42  1  0  0  0  0
 20 43  1  0  0  0  0
 20 44  1  0  0  0  0
 20 45  1  0  0  0  0
 21 22  1  0  0  0  0
 21 23  1  0  0  0  0
 21 24  1  0  0  0  0
 22 46  1  0  0  0  0
 22 47  1  0  0  0  0
 22 48  1  0  0  0  0
 23 49  1  0  0  0  0
 23 50  1  0  0  0  0
 23 51  1  0  0  0  0
 24 52  1  0  0  0  0
 24 53  1  0  0  0  0
 24 54  1  0  0  0  0
 25 26  1  0  0  0  0
 25 27  1  0  0  0  0
 25 28  1  0  0  0  0
 26 55  1  0  0  0  0
 26 56  1  0  0  0  0
 26 57  1  0  0  0  0
 27 58  1  0  0  0  0
 27 59  1  0  0  0  0
 27 60  1  0  0  0  0
 28 61  1  0  0  0  0
 28 62  1  0  0  0  0
 28 63  1  0  0  0  0
 29 30  1  0  0  0  0
 29 31  1  0  0  0  0
 29 32  1  0  0  0  0
 30 64  1  0  0  0  0
 30 65  1  0  0  0  0
 30 66  1  0  0  0  0
 31 67  1  0  0  0  0
 31 68  1  0  0  0  0
 31 69  1  0  0  0  0
 32 70  1  0  0  0  0
 32 71  1  0  0  0  0
 32 72  1  0  0  0  0
M  END
> <NMREDATA_VERSION>
1.1

> <NMREDATA_LEVEL>
0

> <NMREDATA_SOLVENT>
CDCl3

> <NMREDATA_FORMULA>
C28H40O2P2

> <NMREDATA_SMILES>
CC(c1cc(cc2c1OP1P2Oc2c1cc(cc2C(C)(C)C)C(C)(C)C)C(C)(C)C)(C)C

> <NMREDATA_ASSIGNMENT>
P7, 126.20, 7
P8, 126.20, 8

> <NMREDATA_1D_31P>
126.20, L=P7
126.20, L=P8

$$$$
