
 OpenBabel08102311392D

 90 96  0  0  0  0  0  0  0  0999 V2000
   19.3105  -15.4302    0.0000 C   0  0  0  0  0  0  0  0  0  0  0  0
   19.3147  -16.7529    0.0000 C   0  0  0  0  0  0  0  0  0  0  0  0
   18.1669  -14.7700    0.0000 P   0  0  3  0  0  0  0  0  0  0  0  0
   18.1597  -17.4064    0.0000 P   0  0  3  0  0  0  0  0  0  0  0  0
   17.0197  -15.4280    0.0000 C   0  0  0  0  0  0  0  0  0  0  0  0
   17.0162  -16.7462    0.0000 C   0  0  0  0  0  0  0  0  0  0  0  0
   20.5750  -15.0140    0.0000 C   0  0  0  0  0  0  0  0  0  0  0  0
   21.3562  -16.0894    0.0000 N   0  0  0  0  0  0  0  0  0  0  0  0
   20.5730  -17.1626    0.0000 C   0  0  0  0  0  0  0  0  0  0  0  0
   15.7536  -15.0138    0.0000 C   0  0  0  0  0  0  0  0  0  0  0  0
   14.9704  -16.0870    0.0000 N   0  0  0  0  0  0  0  0  0  0  0  0
   15.7516  -17.1624    0.0000 C   0  0  0  0  0  0  0  0  0  0  0  0
   15.3369  -13.7501    0.0000 C   0  0  0  0  0  0  0  0  0  0  0  0
   15.3379  -18.4288    0.0000 C   0  0  0  0  0  0  0  0  0  0  0  0
   20.9888  -13.7476    0.0000 C   0  0  0  0  0  0  0  0  0  0  0  0
   20.9898  -18.4263    0.0000 C   0  0  0  0  0  0  0  0  0  0  0  0
   18.8252  -18.5585    0.0000 N   0  0  0  0  0  0  0  0  0  0  0  0
   16.1650  -20.8614    0.0000 C   0  0  0  0  0  0  0  0  0  0  0  0
   16.8305  -22.0135    0.0000 C   0  0  0  0  0  0  0  0  0  0  0  0
   16.8300  -19.7096    0.0000 C   0  0  0  0  0  0  0  0  0  0  0  0
   18.1610  -22.0138    0.0000 C   0  0  0  0  0  0  0  0  0  0  0  0
   18.1602  -19.7103    0.0000 C   0  0  0  0  0  0  0  0  0  0  0  0
   18.8260  -20.8620    0.0000 C   0  0  0  0  0  0  0  0  0  0  0  0
   16.1655  -23.1653    0.0000 C   0  0  0  0  0  0  0  0  0  0  0  0
   15.0137  -22.5003    0.0000 F   0  0  0  0  0  0  0  0  0  0  0  0
   17.3173  -23.8303    0.0000 F   0  0  0  0  0  0  0  0  0  0  0  0
   15.5008  -24.3167    0.0000 F   0  0  0  0  0  0  0  0  0  0  0  0
   17.4947  -18.5582    0.0000 S   0  0  0  0  0  0  0  0  0  0  0  0
   18.8319  -13.6182    0.0000 S   0  0  0  0  0  0  0  0  0  0  0  0
   17.5014  -13.6179    0.0000 N   0  0  0  0  0  0  0  0  0  0  0  0
   19.4961  -10.1629    0.0000 C   0  0  0  0  0  0  0  0  0  0  0  0
   20.1616  -11.3150    0.0000 C   0  0  0  0  0  0  0  0  0  0  0  0
   18.1656  -10.1626    0.0000 C   0  0  0  0  0  0  0  0  0  0  0  0
   19.4893  -12.4626    0.0000 C   0  0  0  0  0  0  0  0  0  0  0  0
   17.5006  -11.3144    0.0000 C   0  0  0  0  0  0  0  0  0  0  0  0
   18.1664  -12.4661    0.0000 C   0  0  0  0  0  0  0  0  0  0  0  0
   20.1611   -9.0111    0.0000 C   0  0  0  0  0  0  0  0  0  0  0  0
   21.3129   -9.6761    0.0000 F   0  0  0  0  0  0  0  0  0  0  0  0
   19.0093   -8.3461    0.0000 F   0  0  0  0  0  0  0  0  0  0  0  0
   20.8259   -7.8597    0.0000 F   0  0  0  0  0  0  0  0  0  0  0  0
   24.6831  -17.2424    0.0000 C   0  0  0  0  0  0  0  0  0  0  0  0
   25.3481  -16.0906    0.0000 C   0  0  0  0  0  0  0  0  0  0  0  0
   23.3526  -17.2421    0.0000 C   0  0  0  0  0  0  0  0  0  0  0  0
   24.6826  -14.9385    0.0000 C   0  0  0  0  0  0  0  0  0  0  0  0
   22.6867  -16.0897    0.0000 C   0  0  0  0  0  0  0  0  0  0  0  0
   23.3517  -14.9379    0.0000 C   0  0  0  0  0  0  0  0  0  0  0  0
   26.6786  -16.0908    0.0000 C   0  0  0  0  0  0  0  0  0  0  0  0
   13.6400  -16.0867    0.0000 C   0  0  0  0  0  0  0  0  0  0  0  0
   12.9750  -17.2385    0.0000 C   0  0  0  0  0  0  0  0  0  0  0  0
   12.9740  -14.9343    0.0000 C   0  0  0  0  0  0  0  0  0  0  0  0
   11.6440  -17.2379    0.0000 C   0  0  0  0  0  0  0  0  0  0  0  0
   11.6435  -14.9340    0.0000 C   0  0  0  0  0  0  0  0  0  0  0  0
   10.9785  -16.0858    0.0000 C   0  0  0  0  0  0  0  0  0  0  0  0
    9.6480  -16.0856    0.0000 C   0  0  0  0  0  0  0  0  0  0  0  0
   16.0494  -12.9518    0.0000 H   0  0  0  0  0  0  0  0  0  0  0  0
   14.2893  -13.5322    0.0000 H   0  0  0  0  0  0  0  0  0  0  0  0
   15.0018  -12.7339    0.0000 H   0  0  0  0  0  0  0  0  0  0  0  0
   14.2909  -18.6496    0.0000 H   0  0  0  0  0  0  0  0  0  0  0  0
   16.0526  -19.2251    0.0000 H   0  0  0  0  0  0  0  0  0  0  0  0
   15.0056  -19.4459    0.0000 H   0  0  0  0  0  0  0  0  0  0  0  0
   22.0358  -13.5269    0.0000 H   0  0  0  0  0  0  0  0  0  0  0  0
   20.2741  -12.9512    0.0000 H   0  0  0  0  0  0  0  0  0  0  0  0
   21.3211  -12.7305    0.0000 H   0  0  0  0  0  0  0  0  0  0  0  0
   20.2774  -19.2246    0.0000 H   0  0  0  0  0  0  0  0  0  0  0  0
   22.0374  -18.6441    0.0000 H   0  0  0  0  0  0  0  0  0  0  0  0
   21.3250  -19.4425    0.0000 H   0  0  0  0  0  0  0  0  0  0  0  0
   19.8097  -18.5584    0.0000 H   0  0  0  0  0  0  0  0  0  0  0  0
   15.1330  -20.8615    0.0000 H   0  0  0  0  0  0  0  0  0  0  0  0
   16.3142  -18.8157    0.0000 H   0  0  0  0  0  0  0  0  0  0  0  0
   18.6769  -22.9076    0.0000 H   0  0  0  0  0  0  0  0  0  0  0  0
   19.8580  -20.8617    0.0000 H   0  0  0  0  0  0  0  0  0  0  0  0
   16.5169  -13.6180    0.0000 H   0  0  0  0  0  0  0  0  0  0  0  0
   21.1936  -11.3182    0.0000 H   0  0  0  0  0  0  0  0  0  0  0  0
   17.6497   -9.2688    0.0000 H   0  0  0  0  0  0  0  0  0  0  0  0
   20.0036  -13.3573    0.0000 H   0  0  0  0  0  0  0  0  0  0  0  0
   16.4686  -11.3147    0.0000 H   0  0  0  0  0  0  0  0  0  0  0  0
   25.1990  -18.1362    0.0000 H   0  0  0  0  0  0  0  0  0  0  0  0
   22.8367  -18.1359    0.0000 H   0  0  0  0  0  0  0  0  0  0  0  0
   25.1987  -14.0448    0.0000 H   0  0  0  0  0  0  0  0  0  0  0  0
   22.8359  -14.0440    0.0000 H   0  0  0  0  0  0  0  0  0  0  0  0
   27.2135  -17.0175    0.0000 H   0  0  0  0  0  0  0  0  0  0  0  0
   27.2137  -15.1642    0.0000 H   0  0  0  0  0  0  0  0  0  0  0  0
   27.7486  -16.0910    0.0000 H   0  0  0  0  0  0  0  0  0  0  0  0
   13.4908  -18.1324    0.0000 H   0  0  0  0  0  0  0  0  0  0  0  0
   13.4899  -14.0405    0.0000 H   0  0  0  0  0  0  0  0  0  0  0  0
   11.1279  -18.1316    0.0000 H   0  0  0  0  0  0  0  0  0  0  0  0
   11.1276  -14.0402    0.0000 H   0  0  0  0  0  0  0  0  0  0  0  0
    9.1131  -15.1589    0.0000 H   0  0  0  0  0  0  0  0  0  0  0  0
    9.1129  -17.0122    0.0000 H   0  0  0  0  0  0  0  0  0  0  0  0
    8.5780  -16.0854    0.0000 H   0  0  0  0  0  0  0  0  0  0  0  0
  1  3  1  0  0  0  0
  1  7  2  0  0  0  0
  1  2  1  0  0  0  0
  2  4  1  0  0  0  0
  2  9  2  0  0  0  0
  3  5  1  0  0  0  0
  3 29  2  0  0  0  0
  3 30  1  0  0  0  0
  4  6  1  0  0  0  0
  4 17  1  0  0  0  0
  4 28  2  0  0  0  0
  5 10  2  0  0  0  0
  5  6  1  0  0  0  0
  6 12  2  0  0  0  0
  7  8  1  0  0  0  0
  7 15  1  0  0  0  0
  8  9  1  0  0  0  0
  8 45  1  0  0  0  0
  9 16  1  0  0  0  0
 10 11  1  0  0  0  0
 10 13  1  0  0  0  0
 11 12  1  0  0  0  0
 11 48  1  0  0  0  0
 12 14  1  0  0  0  0
 13 55  1  0  0  0  0
 13 56  1  0  0  0  0
 13 57  1  0  0  0  0
 14 58  1  0  0  0  0
 14 59  1  0  0  0  0
 14 60  1  0  0  0  0
 15 61  1  0  0  0  0
 15 62  1  0  0  0  0
 15 63  1  0  0  0  0
 16 64  1  0  0  0  0
 16 65  1  0  0  0  0
 16 66  1  0  0  0  0
 17 22  1  0  0  0  0
 17 67  1  0  0  0  0
 18 19  1  0  0  0  0
 18 20  2  0  0  0  0
 18 68  1  0  0  0  0
 19 21  2  0  0  0  0
 19 24  1  0  0  0  0
 20 22  1  0  0  0  0
 20 69  1  0  0  0  0
 21 23  1  0  0  0  0
 21 70  1  0  0  0  0
 22 23  2  0  0  0  0
 23 71  1  0  0  0  0
 24 25  1  0  0  0  0
 24 26  1  0  0  0  0
 24 27  1  0  0  0  0
 30 36  1  0  0  0  0
 30 72  1  0  0  0  0
 31 32  1  0  0  0  0
 31 33  2  0  0  0  0
 31 37  1  0  0  0  0
 32 34  2  0  0  0  0
 32 73  1  0  0  0  0
 33 35  1  0  0  0  0
 33 74  1  0  0  0  0
 34 36  1  0  0  0  0
 34 75  1  0  0  0  0
 35 36  2  0  0  0  0
 35 76  1  0  0  0  0
 37 38  1  0  0  0  0
 37 39  1  0  0  0  0
 37 40  1  0  0  0  0
 41 42  1  0  0  0  0
 41 43  2  0  0  0  0
 41 77  1  0  0  0  0
 42 44  2  0  0  0  0
 42 47  1  0  0  0  0
 43 45  1  0  0  0  0
 43 78  1  0  0  0  0
 44 46  1  0  0  0  0
 44 79  1  0  0  0  0
 45 46  2  0  0  0  0
 46 80  1  0  0  0  0
 47 81  1  0  0  0  0
 47 82  1  0  0  0  0
 47 83  1  0  0  0  0
 48 49  1  0  0  0  0
 48 50  2  0  0  0  0
 49 51  2  0  0  0  0
 49 84  1  0  0  0  0
 50 52  1  0  0  0  0
 50 85  1  0  0  0  0
 51 53  1  0  0  0  0
 51 86  1  0  0  0  0
 52 53  2  0  0  0  0
 52 87  1  0  0  0  0
 53 54  1  0  0  0  0
 54 88  1  0  0  0  0
 54 89  1  0  0  0  0
 54 90  1  0  0  0  0
M  END
> <NMREDATA_VERSION>
1.1

> <NMREDATA_LEVEL>
0

> <NMREDATA_SOLVENT>
CHCl3

> <NMREDATA_FORMULA>
C40H36F6N4P2S2

> <NMREDATA_SMILES>
Cc1ccc(cc1)n1c(C)c2c(c1C)P(=S)(Nc1ccc(cc1)C(F)(F)F)c1c(P2(=S)Nc2ccc(cc2)C(F)(F)F)c(C)n(c1C)c1ccc(cc1)C

> <NMREDATA_ASSIGNMENT>
P3, 20.30, 3
P4, 20.30, 4

> <NMREDATA_1D_31P>
20.30, L=P3
20.30, L=P4

$$$$
