
 OpenBabel08102311392D

 84 86  0  0  0  0  0  0  0  0999 V2000
   18.6986  -22.0098    0.0000 C   0  0  3  0  0  0  0  0  0  0  0  0
   19.8505  -22.6748    0.0000 P   0  0  0  0  0  0  0  0  0  0  0  0
   17.5468  -22.6748    0.0000 N   0  0  0  0  0  0  0  0  0  0  0  0
   20.5155  -21.5230    0.0000 O   0  0  0  0  0  0  0  0  0  0  0  0
   19.1855  -23.8266    0.0000 O   0  0  0  0  0  0  0  0  0  0  0  0
   21.0023  -23.3398    0.0000 O   0  0  0  0  0  0  0  0  0  0  0  0
   16.3950  -22.0098    0.0000 C   0  0  0  0  0  0  0  0  0  0  0  0
   15.2432  -22.6748    0.0000 C   0  0  0  0  0  0  0  0  0  0  0  0
   14.0914  -22.0098    0.0000 C   0  0  0  0  0  0  0  0  0  0  0  0
   12.8764  -22.5507    0.0000 N   0  0  0  0  0  0  0  0  0  0  0  0
   13.9524  -20.6871    0.0000 C   0  0  0  0  0  0  0  0  0  0  0  0
   11.9864  -21.5624    0.0000 C   0  0  0  0  0  0  0  0  0  0  0  0
   12.6514  -20.4105    0.0000 C   0  0  0  0  0  0  0  0  0  0  0  0
   22.1541  -22.6748    0.0000 C   0  0  0  0  0  0  0  0  0  0  0  0
   23.3059  -23.3398    0.0000 C   0  0  0  0  0  0  0  0  0  0  0  0
   19.8505  -20.3712    0.0000 C   0  0  0  0  0  0  0  0  0  0  0  0
   20.5155  -19.2193    0.0000 C   0  0  0  0  0  0  0  0  0  0  0  0
   19.8505  -18.6848    0.0000 C   0  0  0  0  0  0  0  0  0  0  0  0
   19.8505  -20.0148    0.0000 C   0  0  0  0  0  0  0  0  0  0  0  0
   18.6986  -18.0198    0.0000 C   0  0  0  0  0  0  0  0  0  0  0  0
   18.6986  -20.6798    0.0000 C   0  0  0  0  0  0  0  0  0  0  0  0
   17.5468  -18.6848    0.0000 C   0  0  0  0  0  0  0  0  0  0  0  0
   17.5468  -20.0148    0.0000 C   0  0  0  0  0  0  0  0  0  0  0  0
   18.6986  -16.6898    0.0000 C   0  0  3  0  0  0  0  0  0  0  0  0
   19.8505  -16.0248    0.0000 P   0  0  0  0  0  0  0  0  0  0  0  0
   17.5468  -16.0248    0.0000 N   0  0  0  0  0  0  0  0  0  0  0  0
   19.1855  -14.8730    0.0000 O   0  0  0  0  0  0  0  0  0  0  0  0
   20.5155  -17.1766    0.0000 O   0  0  0  0  0  0  0  0  0  0  0  0
   21.0023  -15.3598    0.0000 O   0  0  0  0  0  0  0  0  0  0  0  0
   16.3950  -16.6898    0.0000 C   0  0  0  0  0  0  0  0  0  0  0  0
   15.2432  -16.0248    0.0000 C   0  0  0  0  0  0  0  0  0  0  0  0
   14.0914  -16.6898    0.0000 C   0  0  0  0  0  0  0  0  0  0  0  0
   13.9524  -18.0125    0.0000 N   0  0  0  0  0  0  0  0  0  0  0  0
   12.8764  -16.1488    0.0000 C   0  0  0  0  0  0  0  0  0  0  0  0
   12.6514  -18.2890    0.0000 C   0  0  0  0  0  0  0  0  0  0  0  0
   11.9864  -17.1372    0.0000 C   0  0  0  0  0  0  0  0  0  0  0  0
   21.0023  -14.0298    0.0000 C   0  0  0  0  0  0  0  0  0  0  0  0
   22.1541  -13.3648    0.0000 C   0  0  0  0  0  0  0  0  0  0  0  0
   17.8555  -14.8730    0.0000 C   0  0  0  0  0  0  0  0  0  0  0  0
   17.1905  -13.7211    0.0000 C   0  0  0  0  0  0  0  0  0  0  0  0
   18.6986  -23.0798    0.0000 H   0  0  0  0  0  0  0  0  0  0  0  0
   17.5468  -23.6948    0.0000 H   0  0  0  0  0  0  0  0  0  0  0  0
   16.3950  -20.9398    0.0000 H   0  0  0  0  0  0  0  0  0  0  0  0
   15.4684  -21.4748    0.0000 H   0  0  0  0  0  0  0  0  0  0  0  0
   15.2432  -23.7448    0.0000 H   0  0  0  0  0  0  0  0  0  0  0  0
   14.3166  -23.2098    0.0000 H   0  0  0  0  0  0  0  0  0  0  0  0
   12.6717  -23.5137    0.0000 H   0  0  0  0  0  0  0  0  0  0  0  0
   14.7193  -19.9966    0.0000 H   0  0  0  0  0  0  0  0  0  0  0  0
   10.9601  -21.6703    0.0000 H   0  0  0  0  0  0  0  0  0  0  0  0
   12.2317  -19.4677    0.0000 H   0  0  0  0  0  0  0  0  0  0  0  0
   22.1541  -21.6048    0.0000 H   0  0  0  0  0  0  0  0  0  0  0  0
   23.0807  -22.1398    0.0000 H   0  0  0  0  0  0  0  0  0  0  0  0
   23.3059  -24.4098    0.0000 H   0  0  0  0  0  0  0  0  0  0  0  0
   24.2325  -22.8048    0.0000 H   0  0  0  0  0  0  0  0  0  0  0  0
   24.2325  -23.8748    0.0000 H   0  0  0  0  0  0  0  0  0  0  0  0
   18.7805  -20.3712    0.0000 H   0  0  0  0  0  0  0  0  0  0  0  0
   19.3155  -19.4446    0.0000 H   0  0  0  0  0  0  0  0  0  0  0  0
   21.5855  -19.2193    0.0000 H   0  0  0  0  0  0  0  0  0  0  0  0
   19.9805  -18.2927    0.0000 H   0  0  0  0  0  0  0  0  0  0  0  0
   21.0505  -18.2926    0.0000 H   0  0  0  0  0  0  0  0  0  0  0  0
   20.7442  -18.1688    0.0000 H   0  0  0  0  0  0  0  0  0  0  0  0
   20.7442  -20.5308    0.0000 H   0  0  0  0  0  0  0  0  0  0  0  0
   16.6531  -18.1688    0.0000 H   0  0  0  0  0  0  0  0  0  0  0  0
   16.6531  -20.5308    0.0000 H   0  0  0  0  0  0  0  0  0  0  0  0
   19.6252  -17.2248    0.0000 H   0  0  0  0  0  0  0  0  0  0  0  0
   17.5468  -15.0048    0.0000 H   0  0  0  0  0  0  0  0  0  0  0  0
   16.3950  -17.7598    0.0000 H   0  0  0  0  0  0  0  0  0  0  0  0
   15.4684  -17.2248    0.0000 H   0  0  0  0  0  0  0  0  0  0  0  0
   15.2432  -14.9548    0.0000 H   0  0  0  0  0  0  0  0  0  0  0  0
   14.3166  -15.4898    0.0000 H   0  0  0  0  0  0  0  0  0  0  0  0
   14.6840  -18.6713    0.0000 H   0  0  0  0  0  0  0  0  0  0  0  0
   12.6619  -15.1393    0.0000 H   0  0  0  0  0  0  0  0  0  0  0  0
   12.2316  -19.2318    0.0000 H   0  0  0  0  0  0  0  0  0  0  0  0
   10.9601  -17.0293    0.0000 H   0  0  0  0  0  0  0  0  0  0  0  0
   20.0757  -13.4948    0.0000 H   0  0  0  0  0  0  0  0  0  0  0  0
   21.0023  -12.9598    0.0000 H   0  0  0  0  0  0  0  0  0  0  0  0
   23.0807  -13.8998    0.0000 H   0  0  0  0  0  0  0  0  0  0  0  0
   22.1541  -12.2948    0.0000 H   0  0  0  0  0  0  0  0  0  0  0  0
   23.0807  -12.8298    0.0000 H   0  0  0  0  0  0  0  0  0  0  0  0
   17.3205  -15.7996    0.0000 H   0  0  0  0  0  0  0  0  0  0  0  0
   16.7855  -14.8730    0.0000 H   0  0  0  0  0  0  0  0  0  0  0  0
   17.7255  -12.7945    0.0000 H   0  0  0  0  0  0  0  0  0  0  0  0
   16.1205  -13.7211    0.0000 H   0  0  0  0  0  0  0  0  0  0  0  0
   16.6555  -12.7944    0.0000 H   0  0  0  0  0  0  0  0  0  0  0  0
  1  2  1  0  0  0  0
  1  3  1  0  0  0  0
  1 21  1  0  0  0  0
  1 41  1  0  0  0  0
  2  4  1  0  0  0  0
  2  5  2  0  0  0  0
  2  6  1  0  0  0  0
  3  7  1  0  0  0  0
  3 42  1  0  0  0  0
  4 16  1  0  0  0  0
  6 14  1  0  0  0  0
  7  8  1  0  0  0  0
  7 43  1  0  0  0  0
  7 44  1  0  0  0  0
  8  9  1  0  0  0  0
  8 45  1  0  0  0  0
  8 46  1  0  0  0  0
  9 10  1  0  0  0  0
  9 11  2  0  0  0  0
 10 12  1  0  0  0  0
 10 47  1  0  0  0  0
 11 13  1  0  0  0  0
 11 48  1  0  0  0  0
 12 13  2  0  0  0  0
 12 49  1  0  0  0  0
 13 50  1  0  0  0  0
 14 15  1  0  0  0  0
 14 51  1  0  0  0  0
 14 52  1  0  0  0  0
 15 53  1  0  0  0  0
 15 54  1  0  0  0  0
 15 55  1  0  0  0  0
 16 17  1  0  0  0  0
 16 56  1  0  0  0  0
 16 57  1  0  0  0  0
 17 58  1  0  0  0  0
 17 59  1  0  0  0  0
 17 60  1  0  0  0  0
 18 19  1  0  0  0  0
 18 20  2  0  0  0  0
 18 61  1  0  0  0  0
 19 21  2  0  0  0  0
 19 62  1  0  0  0  0
 20 22  1  0  0  0  0
 20 24  1  0  0  0  0
 21 23  1  0  0  0  0
 22 23  2  0  0  0  0
 22 63  1  0  0  0  0
 23 64  1  0  0  0  0
 24 25  1  0  0  0  0
 24 26  1  0  0  0  0
 24 65  1  0  0  0  0
 25 27  1  0  0  0  0
 25 28  2  0  0  0  0
 25 29  1  0  0  0  0
 26 30  1  0  0  0  0
 26 66  1  0  0  0  0
 27 39  1  0  0  0  0
 29 37  1  0  0  0  0
 30 31  1  0  0  0  0
 30 67  1  0  0  0  0
 30 68  1  0  0  0  0
 31 32  1  0  0  0  0
 31 69  1  0  0  0  0
 31 70  1  0  0  0  0
 32 33  1  0  0  0  0
 32 34  2  0  0  0  0
 33 35  1  0  0  0  0
 33 71  1  0  0  0  0
 34 36  1  0  0  0  0
 34 72  1  0  0  0  0
 35 36  2  0  0  0  0
 35 73  1  0  0  0  0
 36 74  1  0  0  0  0
 37 38  1  0  0  0  0
 37 75  1  0  0  0  0
 37 76  1  0  0  0  0
 38 77  1  0  0  0  0
 38 78  1  0  0  0  0
 38 79  1  0  0  0  0
 39 40  1  0  0  0  0
 39 80  1  0  0  0  0
 39 81  1  0  0  0  0
 40 82  1  0  0  0  0
 40 83  1  0  0  0  0
 40 84  1  0  0  0  0
M  END
> <NMREDATA_VERSION>
1.1

> <NMREDATA_LEVEL>
0

> <NMREDATA_SOLVENT>
CDCl3

> <NMREDATA_FORMULA>
C28H44N4O6P2

> <NMREDATA_SMILES>
CCOP(=O)(C(c1ccc(cc1)C(P(=O)(OCC)OCC)NCCc1ccc[nH]1)NCCc1ccc[nH]1)OCC

> <NMREDATA_ASSIGNMENT>
P2, 23.70, 2
P25, 23.70, 25

> <NMREDATA_1D_31P>
23.70, L=P2
23.70, L=P25

$$$$
