
 OpenBabel08102311392D

 84 90  0  0  0  0  0  0  0  0999 V2000
    6.8084   -7.9079    0.0000 C   0  0  0  0  0  0  0  0  0  0  0  0
    6.8084   -9.2379    0.0000 N   0  0  0  0  0  0  0  0  0  0  0  0
    5.6564   -7.2429    0.0000 C   0  0  0  0  0  0  0  0  0  0  0  0
    5.6564   -9.9029    0.0000 C   0  0  0  0  0  0  0  0  0  0  0  0
    4.5047   -7.9079    0.0000 O   0  0  0  0  0  0  0  0  0  0  0  0
    4.5047   -9.2379    0.0000 C   0  0  0  0  0  0  0  0  0  0  0  0
   12.2245  -11.0646    0.0000 C   0  0  0  0  0  0  0  0  0  0  0  0
   12.2245  -12.3946    0.0000 C   0  0  0  0  0  0  0  0  0  0  0  0
   11.0726  -10.3996    0.0000 C   0  0  0  0  0  0  0  0  0  0  0  0
   11.0726  -13.0596    0.0000 C   0  0  0  0  0  0  0  0  0  0  0  0
    9.9208  -11.0646    0.0000 C   0  0  0  0  0  0  0  0  0  0  0  0
    9.9208  -12.3946    0.0000 C   0  0  0  0  0  0  0  0  0  0  0  0
   13.3763  -10.3997    0.0000 O   0  0  0  0  0  0  0  0  0  0  0  0
   14.5280  -11.0648    0.0000 C   0  0  0  0  0  0  0  0  0  0  0  0
   13.3762  -13.0596    0.0000 N   0  0  0  0  0  0  0  0  0  0  0  0
   14.5280  -12.3947    0.0000 C   0  0  0  0  0  0  0  0  0  0  0  0
   15.6797  -10.4000    0.0000 C   0  0  0  0  0  0  0  0  0  0  0  0
   16.8314  -11.0651    0.0000 C   0  0  0  0  0  0  0  0  0  0  0  0
   15.6796  -13.0597    0.0000 C   0  0  0  0  0  0  0  0  0  0  0  0
   16.8313  -12.3948    0.0000 C   0  0  0  0  0  0  0  0  0  0  0  0
    8.8133  -10.4157    0.0000 P   0  0  0  0  0  0  0  0  0  0  0  0
   18.1713  -10.3676    0.0000 P   0  0  0  0  0  0  0  0  0  0  0  0
    8.7171   -8.8133    0.0000 S   0  0  0  0  0  0  0  0  0  0  0  0
   18.1233   -8.8613    0.0000 S   0  0  0  0  0  0  0  0  0  0  0  0
   13.3762  -14.3896    0.0000 C   0  0  0  0  0  0  0  0  0  0  0  0
   19.4574  -10.8938    0.0000 N   0  0  0  0  0  0  0  0  0  0  0  0
   20.6131  -10.2357    0.0000 C   0  0  0  0  0  0  0  0  0  0  0  0
   21.7609  -10.9075    0.0000 C   0  0  0  0  0  0  0  0  0  0  0  0
   20.5974  -12.8955    0.0000 C   0  0  0  0  0  0  0  0  0  0  0  0
   21.7531  -12.2374    0.0000 O   0  0  0  0  0  0  0  0  0  0  0  0
   18.1384  -11.6971    0.0000 N   0  0  0  0  0  0  0  0  0  0  0  0
   16.9705  -12.3334    0.0000 C   0  0  0  0  0  0  0  0  0  0  0  0
   19.2403  -13.7200    0.0000 C   0  0  0  0  0  0  0  0  0  0  0  0
   16.9375  -13.6629    0.0000 C   0  0  0  0  0  0  0  0  0  0  0  0
   18.0724  -14.3562    0.0000 O   0  0  0  0  0  0  0  0  0  0  0  0
   19.2770  -12.4668    0.0000 C   0  0  0  0  0  0  0  0  0  0  0  0
   19.7257  -12.2264    0.0000 C   0  0  0  0  0  0  0  0  0  0  0  0
    7.6797  -11.1112    0.0000 N   0  0  0  0  0  0  0  0  0  0  0  0
    7.7153  -12.4406    0.0000 C   0  0  0  0  0  0  0  0  0  0  0  0
    6.5105  -10.4773    0.0000 C   0  0  0  0  0  0  0  0  0  0  0  0
    6.5816  -13.1362    0.0000 C   0  0  0  0  0  0  0  0  0  0  0  0
    5.3770  -11.1728    0.0000 C   0  0  0  0  0  0  0  0  0  0  0  0
    5.4125  -12.5022    0.0000 O   0  0  0  0  0  0  0  0  0  0  0  0
    7.7350   -7.3729    0.0000 H   0  0  0  0  0  0  0  0  0  0  0  0
    6.8083   -6.8379    0.0000 H   0  0  0  0  0  0  0  0  0  0  0  0
    5.6563   -6.1729    0.0000 H   0  0  0  0  0  0  0  0  0  0  0  0
    4.7297   -6.7079    0.0000 H   0  0  0  0  0  0  0  0  0  0  0  0
    5.6563  -10.9729    0.0000 H   0  0  0  0  0  0  0  0  0  0  0  0
    4.7297  -10.4379    0.0000 H   0  0  0  0  0  0  0  0  0  0  0  0
    3.5780   -9.7729    0.0000 H   0  0  0  0  0  0  0  0  0  0  0  0
    3.5781   -8.7029    0.0000 H   0  0  0  0  0  0  0  0  0  0  0  0
   11.0726   -9.3676    0.0000 H   0  0  0  0  0  0  0  0  0  0  0  0
   11.0726  -14.0916    0.0000 H   0  0  0  0  0  0  0  0  0  0  0  0
    9.0271  -12.9106    0.0000 H   0  0  0  0  0  0  0  0  0  0  0  0
   15.6798   -9.3680    0.0000 H   0  0  0  0  0  0  0  0  0  0  0  0
   15.6795  -14.0917    0.0000 H   0  0  0  0  0  0  0  0  0  0  0  0
   17.7250  -12.9108    0.0000 H   0  0  0  0  0  0  0  0  0  0  0  0
   12.4496  -14.9246    0.0000 H   0  0  0  0  0  0  0  0  0  0  0  0
   14.3028  -14.9246    0.0000 H   0  0  0  0  0  0  0  0  0  0  0  0
   13.3762  -15.4596    0.0000 H   0  0  0  0  0  0  0  0  0  0  0  0
   20.6195   -9.1657    0.0000 H   0  0  0  0  0  0  0  0  0  0  0  0
   21.5429   -9.7062    0.0000 H   0  0  0  0  0  0  0  0  0  0  0  0
   22.6907  -10.3780    0.0000 H   0  0  0  0  0  0  0  0  0  0  0  0
   22.6844  -11.4479    0.0000 H   0  0  0  0  0  0  0  0  0  0  0  0
   20.5242  -13.9630    0.0000 H   0  0  0  0  0  0  0  0  0  0  0  0
   19.6221  -13.3355    0.0000 H   0  0  0  0  0  0  0  0  0  0  0  0
   16.0574  -11.7756    0.0000 H   0  0  0  0  0  0  0  0  0  0  0  0
   16.0309  -12.8453    0.0000 H   0  0  0  0  0  0  0  0  0  0  0  0
   20.1521  -14.2799    0.0000 H   0  0  0  0  0  0  0  0  0  0  0  0
   20.1816  -13.2113    0.0000 H   0  0  0  0  0  0  0  0  0  0  0  0
   15.9979  -14.1748    0.0000 H   0  0  0  0  0  0  0  0  0  0  0  0
   16.9110  -14.7326    0.0000 H   0  0  0  0  0  0  0  0  0  0  0  0
   20.2293  -11.9788    0.0000 H   0  0  0  0  0  0  0  0  0  0  0  0
   20.1817  -13.0381    0.0000 H   0  0  0  0  0  0  0  0  0  0  0  0
   18.8177  -12.7924    0.0000 H   0  0  0  0  0  0  0  0  0  0  0  0
   18.7433  -11.8025    0.0000 H   0  0  0  0  0  0  0  0  0  0  0  0
    8.6559  -12.9506    0.0000 H   0  0  0  0  0  0  0  0  0  0  0  0
    7.7439  -13.5102    0.0000 H   0  0  0  0  0  0  0  0  0  0  0  0
    6.4819   -9.4077    0.0000 H   0  0  0  0  0  0  0  0  0  0  0  0
    5.5699   -9.9673    0.0000 H   0  0  0  0  0  0  0  0  0  0  0  0
    6.6102  -14.2058    0.0000 H   0  0  0  0  0  0  0  0  0  0  0  0
    5.6696  -13.6957    0.0000 H   0  0  0  0  0  0  0  0  0  0  0  0
    4.4364  -10.6628    0.0000 H   0  0  0  0  0  0  0  0  0  0  0  0
    4.4650  -11.7324    0.0000 H   0  0  0  0  0  0  0  0  0  0  0  0
  1  2  1  0  0  0  0
  1  3  1  0  0  0  0
  1 44  1  0  0  0  0
  1 45  1  0  0  0  0
  2  4  1  0  0  0  0
  2 21  1  0  0  0  0
  3  5  1  0  0  0  0
  3 46  1  0  0  0  0
  3 47  1  0  0  0  0
  4  6  1  0  0  0  0
  4 48  1  0  0  0  0
  4 49  1  0  0  0  0
  5  6  1  0  0  0  0
  6 50  1  0  0  0  0
  6 51  1  0  0  0  0
  7  9  2  0  0  0  0
  7 13  1  0  0  0  0
  7  8  1  0  0  0  0
  8 10  2  0  0  0  0
  8 15  1  0  0  0  0
  9 11  1  0  0  0  0
  9 52  1  0  0  0  0
 10 12  1  0  0  0  0
 10 53  1  0  0  0  0
 11 12  2  0  0  0  0
 11 21  1  0  0  0  0
 12 54  1  0  0  0  0
 13 14  1  0  0  0  0
 14 17  1  0  0  0  0
 14 16  2  0  0  0  0
 15 16  1  0  0  0  0
 15 25  1  0  0  0  0
 16 19  1  0  0  0  0
 17 18  2  0  0  0  0
 17 55  1  0  0  0  0
 18 20  1  0  0  0  0
 18 22  1  0  0  0  0
 19 20  2  0  0  0  0
 19 56  1  0  0  0  0
 20 57  1  0  0  0  0
 21 23  2  0  0  0  0
 21 38  1  0  0  0  0
 22 24  2  0  0  0  0
 22 26  1  0  0  0  0
 22 31  1  0  0  0  0
 25 58  1  0  0  0  0
 25 59  1  0  0  0  0
 25 60  1  0  0  0  0
 26 27  1  0  0  0  0
 26 37  1  0  0  0  0
 27 28  1  0  0  0  0
 27 61  1  0  0  0  0
 27 62  1  0  0  0  0
 28 30  1  0  0  0  0
 28 63  1  0  0  0  0
 28 64  1  0  0  0  0
 29 30  1  0  0  0  0
 29 37  1  0  0  0  0
 29 65  1  0  0  0  0
 29 66  1  0  0  0  0
 31 32  1  0  0  0  0
 31 36  1  0  0  0  0
 32 34  1  0  0  0  0
 32 67  1  0  0  0  0
 32 68  1  0  0  0  0
 33 35  1  0  0  0  0
 33 69  1  0  0  0  0
 33 70  1  0  0  0  0
 34 35  1  0  0  0  0
 34 71  1  0  0  0  0
 34 72  1  0  0  0  0
 36 33  1  0  0  0  0
 36 73  1  0  0  0  0
 36 74  1  0  0  0  0
 37 75  1  0  0  0  0
 37 76  1  0  0  0  0
 38 39  1  0  0  0  0
 38 40  1  0  0  0  0
 39 41  1  0  0  0  0
 39 77  1  0  0  0  0
 39 78  1  0  0  0  0
 40 42  1  0  0  0  0
 40 79  1  0  0  0  0
 40 80  1  0  0  0  0
 41 43  1  0  0  0  0
 41 81  1  0  0  0  0
 41 82  1  0  0  0  0
 42 43  1  0  0  0  0
 42 83  1  0  0  0  0
 42 84  1  0  0  0  0
M  END
> <NMREDATA_VERSION>
1.1

> <NMREDATA_LEVEL>
0

> <NMREDATA_SOLVENT>
benzene

> <NMREDATA_FORMULA>
C29H41N5O5P2S2

> <NMREDATA_SMILES>
CN1c2ccc(cc2Oc2c1ccc(c2)P(=S)(N1CCOCC1)N1CCOCC1)P(=S)(N1CCOCC1)N1CCOCC1

> <NMREDATA_ASSIGNMENT>
P21, 76.30, 21
P22, 76.30, 22

> <NMREDATA_1D_31P>
76.30, L=P21
76.30, L=P22

$$$$
