
 OpenBabel08102311393D

176184  0  0  0  0  0  0  0  0999 V2000
   24.1989  -14.2943    0.8906 O   0  0  0  0  0  0  0  0  0  0  0  0
   24.2028  -15.5183   -0.1224 P   0  0  2  0  0  0  0  0  0  0  0  0
   23.2209  -16.2164   -0.7259 O   0  0  0  0  0  0  0  0  0  0  0  0
   22.9582  -14.8699    0.3818 C   0  0  1  0  0  0  0  0  0  0  0  0
   14.7525  -13.7025    0.0707 O   0  0  0  0  0  0  0  0  0  0  0  0
   15.8563  -14.9827    0.0163 P   0  0  2  0  0  0  0  0  0  0  0  0
   16.9699  -15.6761   -0.2922 O   0  0  0  0  0  0  0  0  0  0  0  0
   17.9370  -15.8081   -0.5732 C   0  0  0  0  0  0  0  0  0  0  0  0
   18.1939  -14.5078   -0.6849 C   0  0  0  0  0  0  0  0  0  0  0  0
   16.8487  -13.9169   -0.3053 C   0  0  1  0  0  0  0  0  0  0  0  0
   18.6281   -7.1806    0.0567 O   0  0  0  0  0  0  0  0  0  0  0  0
   17.0556   -7.4007    0.0056 P   0  0  2  0  0  0  0  0  0  0  0  0
   16.2843   -8.4920   -0.1675 O   0  0  0  0  0  0  0  0  0  0  0  0
   16.0832   -9.4763   -0.3179 C   0  0  0  0  0  0  0  0  0  0  0  0
   17.3617   -9.8409   -0.3582 C   0  0  0  0  0  0  0  0  0  0  0  0
   18.0473   -8.5035   -0.1490 C   0  0  2  0  0  0  0  0  0  0  0  0
   21.3436   -7.4182    0.0000 C   0  0  0  0  0  0  0  0  0  0  0  0
   21.3436   -8.2603    0.0000 C   0  0  0  0  0  0  0  0  0  0  0  0
   20.6143   -6.9972    0.0000 C   0  0  0  0  0  0  0  0  0  0  0  0
   20.6143   -8.6813    0.0000 C   0  0  0  0  0  0  0  0  0  0  0  0
   19.8849   -7.4182    0.0000 C   0  0  0  0  0  0  0  0  0  0  0  0
   19.8849   -8.2603    0.0000 C   0  0  0  0  0  0  0  0  0  0  0  0
   22.2375   -7.2812    0.0000 O   0  0  0  0  0  0  0  0  0  0  0  0
   23.7593   -7.7379    0.0000 P   0  0  1  0  0  0  0  0  0  0  0  0
   24.3578   -8.9452    0.0000 O   0  0  0  0  0  0  0  0  0  0  0  0
   24.4085   -9.9595    0.0000 C   0  0  0  0  0  0  0  0  0  0  0  0
   23.0897  -10.1320    0.0000 C   0  0  0  0  0  0  0  0  0  0  0  0
   22.6129   -8.6915    0.0000 C   0  0  2  0  0  0  0  0  0  0  0  0
   15.1282  -10.4010   -0.3582 C   0  0  0  0  0  0  0  0  0  0  0  0
   15.4516  -11.6906   -0.3582 C   0  0  0  0  0  0  0  0  0  0  0  0
   17.6851  -11.1304   -0.3582 C   0  0  0  0  0  0  0  0  0  0  0  0
   16.7303  -12.0552   -0.3582 C   0  0  0  0  0  0  0  0  0  0  0  0
   25.2173  -11.0155    0.0000 C   0  0  0  0  0  0  0  0  0  0  0  0
   24.7071  -12.2439    0.0000 C   0  0  0  0  0  0  0  0  0  0  0  0
   22.5797  -11.3604    0.0000 C   0  0  0  0  0  0  0  0  0  0  0  0
   23.3883  -12.4163    0.0000 C   0  0  0  0  0  0  0  0  0  0  0  0
   18.9346  -16.6806   -0.6849 C   0  0  0  0  0  0  0  0  0  0  0  0
   20.1890  -16.2528   -0.6849 C   0  0  0  0  0  0  0  0  0  0  0  0
   19.4482  -14.0801   -0.6849 C   0  0  0  0  0  0  0  0  0  0  0  0
   20.4459  -14.9527   -0.6849 C   0  0  0  0  0  0  0  0  0  0  0  0
   17.1293   -9.4659   -0.1490 C   0  0  0  0  0  0  0  0  0  0  0  0
   15.8369   -9.1522   -0.1490 C   0  0  0  0  0  0  0  0  0  0  0  0
   14.9189  -10.1147   -0.1490 C   0  0  0  0  0  0  0  0  0  0  0  0
   13.6265   -9.8009   -0.1490 C   0  0  0  0  0  0  0  0  0  0  0  0
   12.7085  -10.7634   -0.1490 C   0  0  0  0  0  0  0  0  0  0  0  0
   11.4161  -10.4497   -0.1490 C   0  0  0  0  0  0  0  0  0  0  0  0
   10.4981  -11.4121   -0.1490 C   0  0  0  0  0  0  0  0  0  0  0  0
   15.8526  -14.7983   -0.3053 C   0  0  0  0  0  0  0  0  0  0  0  0
   14.5913  -14.3763   -0.3053 C   0  0  0  0  0  0  0  0  0  0  0  0
   13.5952  -15.2576   -0.3053 C   0  0  0  0  0  0  0  0  0  0  0  0
   12.3340  -14.8357   -0.3053 C   0  0  0  0  0  0  0  0  0  0  0  0
   11.3379  -15.7170   -0.3053 C   0  0  0  0  0  0  0  0  0  0  0  0
   10.0766  -15.2950   -0.3053 C   0  0  0  0  0  0  0  0  0  0  0  0
    9.0805  -16.1763   -0.3053 C   0  0  0  0  0  0  0  0  0  0  0  0
   22.4841  -17.3909    0.3818 C   0  0  0  0  0  0  0  0  0  0  0  0
   21.5376  -16.6833    0.3818 C   0  0  0  0  0  0  0  0  0  0  0  0
   21.3507  -18.0001    0.3818 C   0  0  0  0  0  0  0  0  0  0  0  0
   20.1169  -18.4967    0.3818 C   0  0  0  0  0  0  0  0  0  0  0  0
   19.9301  -19.8135    0.3818 C   0  0  0  0  0  0  0  0  0  0  0  0
   18.6963  -20.3101    0.3818 C   0  0  0  0  0  0  0  0  0  0  0  0
   18.5094  -21.6270    0.3818 C   0  0  0  0  0  0  0  0  0  0  0  0
   23.8283   -8.1514    0.0000 C   0  0  0  0  0  0  0  0  0  0  0  0
   24.9038   -8.9339    0.0000 C   0  0  0  0  0  0  0  0  0  0  0  0
   26.1192   -8.3938    0.0000 C   0  0  0  0  0  0  0  0  0  0  0  0
   27.1946   -9.1763    0.0000 C   0  0  0  0  0  0  0  0  0  0  0  0
   28.4100   -8.6362    0.0000 C   0  0  0  0  0  0  0  0  0  0  0  0
   29.4855   -9.4187    0.0000 C   0  0  0  0  0  0  0  0  0  0  0  0
   30.7008   -8.8786    0.0000 C   0  0  0  0  0  0  0  0  0  0  0  0
   15.3511  -18.1873    0.0163 N   0  0  0  0  0  0  0  0  0  0  0  0
   12.7071  -18.1873    0.0163 C   0  0  0  0  0  0  0  0  0  0  0  0
   15.3511  -20.4627    0.0163 C   0  0  0  0  0  0  0  0  0  0  0  0
   25.5745  -17.0496   -0.1224 N   0  0  0  0  0  0  0  0  0  0  0  0
   24.8213  -20.4627   -0.1224 C   0  0  0  0  0  0  0  0  0  0  0  0
   28.6030  -17.4342   -0.1224 C   0  0  0  0  0  0  0  0  0  0  0  0
   24.4368   -5.7045    0.0000 N   0  0  0  0  0  0  0  0  0  0  0  0
   23.6836   -4.1823    0.0000 C   0  0  0  0  0  0  0  0  0  0  0  0
   27.0968   -6.0731    0.0000 C   0  0  0  0  0  0  0  0  0  0  0  0
   16.1202   -5.7045    0.0056 N   0  0  0  0  0  0  0  0  0  0  0  0
   13.8448   -4.9354    0.0056 C   0  0  0  0  0  0  0  0  0  0  0  0
   18.7642   -3.4291    0.0056 C   0  0  0  0  0  0  0  0  0  0  0  0
   23.8830  -14.8308    0.9185 H   0  0  0  0  0  0  0  0  0  0  0  0
   16.5784  -13.7181    0.7107 H   0  0  0  0  0  0  0  0  0  0  0  0
   18.1583   -7.4401   -0.1073 H   0  0  0  0  0  0  0  0  0  0  0  0
   20.6143   -5.9652    0.0000 H   0  0  0  0  0  0  0  0  0  0  0  0
   20.6143   -9.7133    0.0000 H   0  0  0  0  0  0  0  0  0  0  0  0
   21.7725   -8.0292    0.0000 H   0  0  0  0  0  0  0  0  0  0  0  0
   14.1364  -10.1176   -0.3895 H   0  0  0  0  0  0  0  0  0  0  0  0
   18.6775  -11.4134   -0.3582 H   0  0  0  0  0  0  0  0  0  0  0  0
   26.2406  -10.8817    0.0000 H   0  0  0  0  0  0  0  0  0  0  0  0
   21.5564  -11.4942    0.0000 H   0  0  0  0  0  0  0  0  0  0  0  0
   18.7323  -17.6889   -0.7714 H   0  0  0  0  0  0  0  0  0  0  0  0
   19.6482  -13.0677   -0.6849 H   0  0  0  0  0  0  0  0  0  0  0  0
   17.3033  -10.0587    0.7247 H   0  0  0  0  0  0  0  0  0  0  0  0
   17.2678   -9.9378   -1.0993 H   0  0  0  0  0  0  0  0  0  0  0  0
   15.6629   -8.5594   -1.0227 H   0  0  0  0  0  0  0  0  0  0  0  0
   15.6984   -8.6802    0.8012 H   0  0  0  0  0  0  0  0  0  0  0  0
   15.0928  -10.7075    0.7247 H   0  0  0  0  0  0  0  0  0  0  0  0
   15.0574  -10.5867   -1.0992 H   0  0  0  0  0  0  0  0  0  0  0  0
   13.4526   -9.2081   -1.0227 H   0  0  0  0  0  0  0  0  0  0  0  0
   13.4880   -9.3289    0.8012 H   0  0  0  0  0  0  0  0  0  0  0  0
   12.8825  -11.3562    0.7247 H   0  0  0  0  0  0  0  0  0  0  0  0
   12.8470  -11.2354   -1.0992 H   0  0  0  0  0  0  0  0  0  0  0  0
   11.2421   -9.8569   -1.0227 H   0  0  0  0  0  0  0  0  0  0  0  0
   11.2776   -9.9778    0.8013 H   0  0  0  0  0  0  0  0  0  0  0  0
   10.5505  -11.9550   -1.0696 H   0  0  0  0  0  0  0  0  0  0  0  0
    9.5258  -10.9775   -0.0461 H   0  0  0  0  0  0  0  0  0  0  0  0
   10.6795  -12.0780    0.6686 H   0  0  0  0  0  0  0  0  0  0  0  0
   15.9758  -15.4037    0.5684 H   0  0  0  0  0  0  0  0  0  0  0  0
   15.9507  -15.2803   -1.2555 H   0  0  0  0  0  0  0  0  0  0  0  0
   14.4681  -13.7709   -1.1790 H   0  0  0  0  0  0  0  0  0  0  0  0
   14.4932  -13.8943    0.6449 H   0  0  0  0  0  0  0  0  0  0  0  0
   13.7184  -15.8630    0.5684 H   0  0  0  0  0  0  0  0  0  0  0  0
   13.6933  -15.7396   -1.2556 H   0  0  0  0  0  0  0  0  0  0  0  0
   12.2108  -14.2303   -1.1790 H   0  0  0  0  0  0  0  0  0  0  0  0
   12.2359  -14.3537    0.6450 H   0  0  0  0  0  0  0  0  0  0  0  0
   11.4611  -16.3224    0.5684 H   0  0  0  0  0  0  0  0  0  0  0  0
   11.4360  -16.1990   -1.2555 H   0  0  0  0  0  0  0  0  0  0  0  0
    9.9534  -14.6896   -1.1790 H   0  0  0  0  0  0  0  0  0  0  0  0
    9.9785  -14.8130    0.6449 H   0  0  0  0  0  0  0  0  0  0  0  0
    9.0868  -16.7217   -1.2258 H   0  0  0  0  0  0  0  0  0  0  0  0
    8.1484  -15.6610   -0.2024 H   0  0  0  0  0  0  0  0  0  0  0  0
    9.2049  -16.8552    0.5123 H   0  0  0  0  0  0  0  0  0  0  0  0
   22.7083  -17.9665    1.2555 H   0  0  0  0  0  0  0  0  0  0  0  0
   22.7979  -18.1965   -0.2485 H   0  0  0  0  0  0  0  0  0  0  0  0
   21.3005  -16.1128   -0.4919 H   0  0  0  0  0  0  0  0  0  0  0  0
   21.2034  -15.8792    1.0037 H   0  0  0  0  0  0  0  0  0  0  0  0
   21.8370  -18.3811    1.2555 H   0  0  0  0  0  0  0  0  0  0  0  0
   21.7379  -18.3034   -0.5685 H   0  0  0  0  0  0  0  0  0  0  0  0
   19.6306  -18.1157   -0.4919 H   0  0  0  0  0  0  0  0  0  0  0  0
   19.7297  -18.1934    1.3320 H   0  0  0  0  0  0  0  0  0  0  0  0
   20.4164  -20.1945    1.2555 H   0  0  0  0  0  0  0  0  0  0  0  0
   20.3173  -20.1168   -0.5684 H   0  0  0  0  0  0  0  0  0  0  0  0
   18.2100  -19.9291   -0.4919 H   0  0  0  0  0  0  0  0  0  0  0  0
   18.3091  -20.0068    1.3321 H   0  0  0  0  0  0  0  0  0  0  0  0
   18.8678  -22.0381   -0.5388 H   0  0  0  0  0  0  0  0  0  0  0  0
   17.4657  -21.8391    0.4847 H   0  0  0  0  0  0  0  0  0  0  0  0
   19.0443  -22.0632    1.1994 H   0  0  0  0  0  0  0  0  0  0  0  0
   23.8933   -7.5371    0.8737 H   0  0  0  0  0  0  0  0  0  0  0  0
   23.8800   -7.6623   -0.9503 H   0  0  0  0  0  0  0  0  0  0  0  0
   24.8388   -9.5482   -0.8737 H   0  0  0  0  0  0  0  0  0  0  0  0
   24.8521   -9.4230    0.9503 H   0  0  0  0  0  0  0  0  0  0  0  0
   26.1842   -7.7795    0.8737 H   0  0  0  0  0  0  0  0  0  0  0  0
   26.1710   -7.9046   -0.9502 H   0  0  0  0  0  0  0  0  0  0  0  0
   27.1296   -9.7906   -0.8737 H   0  0  0  0  0  0  0  0  0  0  0  0
   27.1428   -9.6655    0.9502 H   0  0  0  0  0  0  0  0  0  0  0  0
   28.4750   -8.0219    0.8737 H   0  0  0  0  0  0  0  0  0  0  0  0
   28.4617   -8.1471   -0.9503 H   0  0  0  0  0  0  0  0  0  0  0  0
   29.4205  -10.0330   -0.8737 H   0  0  0  0  0  0  0  0  0  0  0  0
   29.4338   -9.9078    0.9502 H   0  0  0  0  0  0  0  0  0  0  0  0
   30.8591   -8.3567   -0.9205 H   0  0  0  0  0  0  0  0  0  0  0  0
   31.4343   -9.6508    0.1029 H   0  0  0  0  0  0  0  0  0  0  0  0
   30.7868   -8.1938    0.8176 H   0  0  0  0  0  0  0  0  0  0  0  0
   12.3504  -17.1785    0.0163 H   0  0  0  0  0  0  0  0  0  0  0  0
   12.3504  -18.6917    0.8900 H   0  0  0  0  0  0  0  0  0  0  0  0
   12.3504  -18.6917   -0.8573 H   0  0  0  0  0  0  0  0  0  0  0  0
   16.3599  -20.8194    0.0163 H   0  0  0  0  0  0  0  0  0  0  0  0
   14.8467  -20.8194   -0.8574 H   0  0  0  0  0  0  0  0  0  0  0  0
   14.8467  -20.8194    0.8899 H   0  0  0  0  0  0  0  0  0  0  0  0
   23.7593  -20.5936   -0.1224 H   0  0  0  0  0  0  0  0  0  0  0  0
   25.2370  -20.9197    0.7513 H   0  0  0  0  0  0  0  0  0  0  0  0
   25.2370  -20.9197   -0.9960 H   0  0  0  0  0  0  0  0  0  0  0  0
   29.0839  -16.4784   -0.1224 H   0  0  0  0  0  0  0  0  0  0  0  0
   28.8933  -17.9795   -0.9961 H   0  0  0  0  0  0  0  0  0  0  0  0
   28.8933  -17.9795    0.7512 H   0  0  0  0  0  0  0  0  0  0  0  0
   22.6213   -4.3100    0.0000 H   0  0  0  0  0  0  0  0  0  0  0  0
   23.9775   -3.6389   -0.8737 H   0  0  0  0  0  0  0  0  0  0  0  0
   23.9775   -3.6389    0.8736 H   0  0  0  0  0  0  0  0  0  0  0  0
   27.3116   -7.1213    0.0000 H   0  0  0  0  0  0  0  0  0  0  0  0
   27.5193   -5.6224    0.8737 H   0  0  0  0  0  0  0  0  0  0  0  0
   27.5193   -5.6224   -0.8736 H   0  0  0  0  0  0  0  0  0  0  0  0
   13.1839   -5.7769    0.0056 H   0  0  0  0  0  0  0  0  0  0  0  0
   13.6684   -4.3433   -0.8681 H   0  0  0  0  0  0  0  0  0  0  0  0
   13.6684   -4.3433    0.8792 H   0  0  0  0  0  0  0  0  0  0  0  0
   19.6926   -3.9611    0.0056 H   0  0  0  0  0  0  0  0  0  0  0  0
   18.7055   -2.8141    0.8793 H   0  0  0  0  0  0  0  0  0  0  0  0
   18.7055   -2.8141   -0.8680 H   0  0  0  0  0  0  0  0  0  0  0  0
  1  2  1  0  0  0  0
  1 34  1  0  0  0  0
  2  3  1  0  0  0  0
  2 72  1  1  0  0  0
  3 38  1  0  0  0  0
  4 36  1  0  0  0  0
  4 40  1  0  0  0  0
  4 81  1  1  0  0  0
  5  6  1  0  0  0  0
  5 30  1  0  0  0  0
  6  7  1  0  0  0  0
  6 69  1  6  0  0  0
  7  8  1  0  0  0  0
  8 37  1  0  0  0  0
  8  9  2  0  0  0  0
  9 10  1  0  0  0  0
  9 39  1  0  0  0  0
 10 32  1  0  0  0  0
 10 82  1  1  0  0  0
 11 12  1  0  0  0  0
 11 21  1  0  0  0  0
 12 13  1  0  0  0  0
 12 78  1  6  0  0  0
 13 14  1  0  0  0  0
 14 29  1  0  0  0  0
 14 15  2  0  0  0  0
 15 16  1  0  0  0  0
 15 31  1  0  0  0  0
 16 83  1  6  0  0  0
 17 18  1  0  0  0  0
 17 19  2  0  0  0  0
 17 23  1  0  0  0  0
 18 20  2  0  0  0  0
 19 21  1  0  0  0  0
 19 84  1  0  0  0  0
 20 22  1  0  0  0  0
 20 85  1  0  0  0  0
 21 22  2  0  0  0  0
 22 16  1  0  0  0  0
 23 24  1  0  0  0  0
 24 25  1  0  0  0  0
 24 75  1  6  0  0  0
 25 26  1  0  0  0  0
 26 33  1  0  0  0  0
 26 27  2  0  0  0  0
 27 28  1  0  0  0  0
 27 35  1  0  0  0  0
 28 18  1  0  0  0  0
 28 86  1  6  0  0  0
 29 30  2  0  0  0  0
 29 87  1  0  0  0  0
 30 32  1  0  0  0  0
 31 32  2  0  0  0  0
 31 88  1  0  0  0  0
 33 34  2  0  0  0  0
 33 89  1  0  0  0  0
 34 36  1  0  0  0  0
 35 36  2  0  0  0  0
 35 90  1  0  0  0  0
 37 38  2  0  0  0  0
 37 91  1  0  0  0  0
 38 40  1  0  0  0  0
 39 40  2  0  0  0  0
 39 92  1  0  0  0  0
 41 16  1  0  0  0  0
 41 93  1  0  0  0  0
 41 94  1  0  0  0  0
 42 41  1  0  0  0  0
 42 95  1  0  0  0  0
 42 96  1  0  0  0  0
 43 42  1  0  0  0  0
 43 97  1  0  0  0  0
 43 98  1  0  0  0  0
 44 43  1  0  0  0  0
 44 99  1  0  0  0  0
 44100  1  0  0  0  0
 45 44  1  0  0  0  0
 45101  1  0  0  0  0
 45102  1  0  0  0  0
 46 45  1  0  0  0  0
 46103  1  0  0  0  0
 46104  1  0  0  0  0
 47 46  1  0  0  0  0
 47105  1  0  0  0  0
 47106  1  0  0  0  0
 47107  1  0  0  0  0
 48 10  1  0  0  0  0
 48108  1  0  0  0  0
 48109  1  0  0  0  0
 49 48  1  0  0  0  0
 49110  1  0  0  0  0
 49111  1  0  0  0  0
 50 49  1  0  0  0  0
 50112  1  0  0  0  0
 50113  1  0  0  0  0
 51 50  1  0  0  0  0
 51114  1  0  0  0  0
 51115  1  0  0  0  0
 52 51  1  0  0  0  0
 52116  1  0  0  0  0
 52117  1  0  0  0  0
 53 52  1  0  0  0  0
 53118  1  0  0  0  0
 53119  1  0  0  0  0
 54 53  1  0  0  0  0
 54120  1  0  0  0  0
 54121  1  0  0  0  0
 54122  1  0  0  0  0
 55  4  1  0  0  0  0
 55123  1  0  0  0  0
 55124  1  0  0  0  0
 56 55  1  0  0  0  0
 56125  1  0  0  0  0
 56126  1  0  0  0  0
 57 56  1  0  0  0  0
 57127  1  0  0  0  0
 57128  1  0  0  0  0
 58 57  1  0  0  0  0
 58129  1  0  0  0  0
 58130  1  0  0  0  0
 59 58  1  0  0  0  0
 59131  1  0  0  0  0
 59132  1  0  0  0  0
 60 59  1  0  0  0  0
 60133  1  0  0  0  0
 60134  1  0  0  0  0
 61 60  1  0  0  0  0
 61135  1  0  0  0  0
 61136  1  0  0  0  0
 61137  1  0  0  0  0
 62 28  1  0  0  0  0
 62138  1  0  0  0  0
 62139  1  0  0  0  0
 63 62  1  0  0  0  0
 63140  1  0  0  0  0
 63141  1  0  0  0  0
 64 63  1  0  0  0  0
 64142  1  0  0  0  0
 64143  1  0  0  0  0
 65 64  1  0  0  0  0
 65144  1  0  0  0  0
 65145  1  0  0  0  0
 66 65  1  0  0  0  0
 66146  1  0  0  0  0
 66147  1  0  0  0  0
 67 66  1  0  0  0  0
 67148  1  0  0  0  0
 67149  1  0  0  0  0
 68 67  1  0  0  0  0
 68150  1  0  0  0  0
 68151  1  0  0  0  0
 68152  1  0  0  0  0
 69 70  1  0  0  0  0
 69 71  1  0  0  0  0
 70153  1  0  0  0  0
 70154  1  0  0  0  0
 70155  1  0  0  0  0
 71156  1  0  0  0  0
 71157  1  0  0  0  0
 71158  1  0  0  0  0
 72 73  1  0  0  0  0
 72 74  1  0  0  0  0
 73159  1  0  0  0  0
 73160  1  0  0  0  0
 73161  1  0  0  0  0
 74162  1  0  0  0  0
 74163  1  0  0  0  0
 74164  1  0  0  0  0
 75 76  1  0  0  0  0
 75 77  1  0  0  0  0
 76165  1  0  0  0  0
 76166  1  0  0  0  0
 76167  1  0  0  0  0
 77168  1  0  0  0  0
 77169  1  0  0  0  0
 77170  1  0  0  0  0
 78 79  1  0  0  0  0
 78 80  1  0  0  0  0
 79171  1  0  0  0  0
 79172  1  0  0  0  0
 79173  1  0  0  0  0
 80174  1  0  0  0  0
 80175  1  0  0  0  0
 80176  1  0  0  0  0
M  END
> <NMREDATA_VERSION>
1.1

> <NMREDATA_LEVEL>
0

> <NMREDATA_SOLVENT>
C6D6

> <NMREDATA_FORMULA>
C64H96N4O8P4

> <NMREDATA_SMILES>
CCCCCCC[C@@H]1c2cc3c4cc2OP(Oc2c1cc1c(c2)OP(Oc2c([C@H]1CCCCCCC)cc1[C@H](c5cc([C@H]3CCCCCCC)c(OP(O4)N(C)C)cc5OP(Oc1c2)N(C)C)CCCCCCC)N(C)C)N(C)C

> <NMREDATA_ASSIGNMENT>
P2, 142.60, 2
P6, 142.60, 6
P12, 142.60, 12
P24, 142.60, 24

> <NMREDATA_1D_31P>
142.60, L=P2
142.60, L=P6
142.60, L=P12
142.60, L=P24

$$$$
