
 OpenBabel08102311392D

192196  0  0  0  0  0  0  0  0999 V2000
   14.7403  -14.3977    0.0000 C   0  0  0  0  0  0  0  0  0  0  0  0
   14.7403  -15.7277    0.0000 C   0  0  0  0  0  0  0  0  0  0  0  0
   13.5884  -13.7327    0.0000 C   0  0  0  0  0  0  0  0  0  0  0  0
   13.5884  -16.3927    0.0000 C   0  0  0  0  0  0  0  0  0  0  0  0
   12.4366  -14.3977    0.0000 C   0  0  0  0  0  0  0  0  0  0  0  0
   12.4366  -15.7277    0.0000 C   0  0  0  0  0  0  0  0  0  0  0  0
   16.6490  -15.1428    0.0000 C   0  0  0  0  0  0  0  0  0  0  0  0
   14.7582  -17.4182    0.0000 C   0  0  0  0  0  0  0  0  0  0  0  0
   19.0347  -18.5960    0.0000 C   0  0  0  0  0  0  0  0  0  0  0  0
   19.0347  -19.9260    0.0000 C   0  0  0  0  0  0  0  0  0  0  0  0
   17.8828  -17.9310    0.0000 C   0  0  0  0  0  0  0  0  0  0  0  0
   17.8828  -20.5910    0.0000 C   0  0  0  0  0  0  0  0  0  0  0  0
   16.7311  -18.5960    0.0000 C   0  0  0  0  0  0  0  0  0  0  0  0
   16.7311  -19.9260    0.0000 C   0  0  0  0  0  0  0  0  0  0  0  0
   17.7868  -16.6490    0.0000 C   0  0  0  0  0  0  0  0  0  0  0  0
   20.4468  -17.4182    0.0000 C   0  0  0  0  0  0  0  0  0  0  0  0
   23.6497  -14.6861    0.0000 C   0  0  0  0  0  0  0  0  0  0  0  0
   23.6497  -16.0161    0.0000 C   0  0  0  0  0  0  0  0  0  0  0  0
   22.4978  -14.0211    0.0000 C   0  0  0  0  0  0  0  0  0  0  0  0
   22.4978  -16.6811    0.0000 C   0  0  0  0  0  0  0  0  0  0  0  0
   21.3460  -14.6861    0.0000 C   0  0  0  0  0  0  0  0  0  0  0  0
   21.3460  -16.0161    0.0000 C   0  0  0  0  0  0  0  0  0  0  0  0
   19.3090  -15.5274    0.0000 C   0  0  0  0  0  0  0  0  0  0  0  0
   21.1999  -12.8674    0.0000 C   0  0  0  0  0  0  0  0  0  0  0  0
   19.2751  -11.2890    0.0000 C   0  0  0  0  0  0  0  0  0  0  0  0
   19.2751  -12.6190    0.0000 C   0  0  0  0  0  0  0  0  0  0  0  0
   18.1232  -10.6240    0.0000 C   0  0  0  0  0  0  0  0  0  0  0  0
   18.1232  -13.2840    0.0000 C   0  0  0  0  0  0  0  0  0  0  0  0
   16.9714  -11.2890    0.0000 C   0  0  0  0  0  0  0  0  0  0  0  0
   16.9714  -12.6190    0.0000 C   0  0  0  0  0  0  0  0  0  0  0  0
   18.1713  -14.3896    0.0000 C   0  0  0  0  0  0  0  0  0  0  0  0
   15.5274  -12.1142    0.0000 C   0  0  0  0  0  0  0  0  0  0  0  0
   15.8196  -10.6240    0.0000 C   0  0  0  0  0  0  0  0  0  0  0  0
   20.4269  -10.6240    0.0000 C   0  0  0  0  0  0  0  0  0  0  0  0
   24.8015  -14.0211    0.0000 C   0  0  0  0  0  0  0  0  0  0  0  0
   21.8567  -18.0431    0.0000 C   0  0  0  0  0  0  0  0  0  0  0  0
   20.1865  -20.5910    0.0000 C   0  0  0  0  0  0  0  0  0  0  0  0
   15.1824  -20.1903    0.0000 C   0  0  0  0  0  0  0  0  0  0  0  0
   13.5883  -17.7227    0.0000 C   0  0  0  0  0  0  0  0  0  0  0  0
   11.7853  -12.3706    0.0000 C   0  0  0  0  0  0  0  0  0  0  0  0
   18.1232   -9.2940    0.0000 C   0  0  0  0  0  0  0  0  0  0  0  0
   24.8015  -16.6811    0.0000 C   0  0  0  0  0  0  0  0  0  0  0  0
   17.8828  -21.9210    0.0000 C   0  0  0  0  0  0  0  0  0  0  0  0
   11.2848  -16.3926    0.0000 C   0  0  0  0  0  0  0  0  0  0  0  0
   24.8015  -18.0111    0.0000 P   0  0  0  0  0  0  0  0  0  0  0  0
   24.8014  -19.3411    0.0000 O   0  0  0  0  0  0  0  0  0  0  0  0
   26.1315  -18.0111    0.0000 O   0  0  0  0  0  0  0  0  0  0  0  0
   23.3714  -19.1808    0.0000 O   0  0  0  0  0  0  0  0  0  0  0  0
   19.2750   -8.6290    0.0000 P   0  0  0  0  0  0  0  0  0  0  0  0
   20.4268   -7.9639    0.0000 O   0  0  0  0  0  0  0  0  0  0  0  0
   18.6099   -7.4772    0.0000 O   0  0  0  0  0  0  0  0  0  0  0  0
   19.9400   -9.7808    0.0000 O   0  0  0  0  0  0  0  0  0  0  0  0
   10.1330  -15.7276    0.0000 P   0  0  0  0  0  0  0  0  0  0  0  0
    8.9812  -15.0626    0.0000 O   0  0  0  0  0  0  0  0  0  0  0  0
    9.4680  -16.8794    0.0000 O   0  0  0  0  0  0  0  0  0  0  0  0
   10.7980  -14.5758    0.0000 O   0  0  0  0  0  0  0  0  0  0  0  0
   16.7310  -22.5859    0.0000 P   0  0  0  0  0  0  0  0  0  0  0  0
   15.5791  -23.2509    0.0000 O   0  0  0  0  0  0  0  0  0  0  0  0
   17.3959  -23.7378    0.0000 O   0  0  0  0  0  0  0  0  0  0  0  0
   16.0660  -21.4341    0.0000 O   0  0  0  0  0  0  0  0  0  0  0  0
    8.7011  -12.4988    0.0000 C   0  0  0  0  0  0  0  0  0  0  0  0
    9.0392  -11.2125    0.0000 C   0  0  0  0  0  0  0  0  0  0  0  0
    7.4181  -12.8491    0.0000 C   0  0  0  0  0  0  0  0  0  0  0  0
    6.8102  -17.0336    0.0000 C   0  0  0  0  0  0  0  0  0  0  0  0
    6.0797  -15.9223    0.0000 C   0  0  0  0  0  0  0  0  0  0  0  0
    6.2131  -18.2220    0.0000 C   0  0  0  0  0  0  0  0  0  0  0  0
   16.6490   -6.8102    0.0000 C   0  0  0  0  0  0  0  0  0  0  0  0
   16.3903   -5.5056    0.0000 C   0  0  0  0  0  0  0  0  0  0  0  0
   15.6486   -7.6866    0.0000 C   0  0  0  0  0  0  0  0  0  0  0  0
   22.3376   -8.3325    0.0000 C   0  0  0  0  0  0  0  0  0  0  0  0
   23.5023   -8.9746    0.0000 C   0  0  0  0  0  0  0  0  0  0  0  0
   22.3113   -7.0028    0.0000 C   0  0  0  0  0  0  0  0  0  0  0  0
   28.3947  -18.5399    0.0000 C   0  0  0  0  0  0  0  0  0  0  0  0
   28.7802  -19.8128    0.0000 C   0  0  0  0  0  0  0  0  0  0  0  0
   29.3043  -17.5696    0.0000 C   0  0  0  0  0  0  0  0  0  0  0  0
   26.1193  -21.1999    0.0000 C   0  0  0  0  0  0  0  0  0  0  0  0
   25.9732  -22.5218    0.0000 C   0  0  0  0  0  0  0  0  0  0  0  0
   27.3372  -20.6655    0.0000 C   0  0  0  0  0  0  0  0  0  0  0  0
   18.9245  -24.9816    0.0000 C   0  0  0  0  0  0  0  0  0  0  0  0
   18.7133  -26.2947    0.0000 C   0  0  0  0  0  0  0  0  0  0  0  0
   20.1673  -24.5079    0.0000 C   0  0  0  0  0  0  0  0  0  0  0  0
   12.8674  -21.9530    0.0000 C   0  0  0  0  0  0  0  0  0  0  0  0
   12.0265  -20.9226    0.0000 C   0  0  0  0  0  0  0  0  0  0  0  0
   12.3954  -23.1965    0.0000 C   0  0  0  0  0  0  0  0  0  0  0  0
   16.8104  -16.2006    0.0000 H   0  0  0  0  0  0  0  0  0  0  0  0
   17.4843  -14.4741    0.0000 H   0  0  0  0  0  0  0  0  0  0  0  0
   17.6457  -15.5319    0.0000 H   0  0  0  0  0  0  0  0  0  0  0  0
   13.8305  -17.9513    0.0000 H   0  0  0  0  0  0  0  0  0  0  0  0
   14.7493  -18.4882    0.0000 H   0  0  0  0  0  0  0  0  0  0  0  0
   18.6709  -16.0463    0.0000 H   0  0  0  0  0  0  0  0  0  0  0  0
   16.8228  -16.1847    0.0000 H   0  0  0  0  0  0  0  0  0  0  0  0
   17.7069  -15.5820    0.0000 H   0  0  0  0  0  0  0  0  0  0  0  0
   21.2492  -18.1261    0.0000 H   0  0  0  0  0  0  0  0  0  0  0  0
   21.5065  -17.2702    0.0000 H   0  0  0  0  0  0  0  0  0  0  0  0
   18.4608  -14.8752    0.0000 H   0  0  0  0  0  0  0  0  0  0  0  0
   19.1682  -16.5881    0.0000 H   0  0  0  0  0  0  0  0  0  0  0  0
   18.3200  -15.9359    0.0000 H   0  0  0  0  0  0  0  0  0  0  0  0
   21.6435  -11.8937    0.0000 H   0  0  0  0  0  0  0  0  0  0  0  0
   20.6799  -11.9322    0.0000 H   0  0  0  0  0  0  0  0  0  0  0  0
   17.2688  -14.9644    0.0000 H   0  0  0  0  0  0  0  0  0  0  0  0
   19.1203  -14.8838    0.0000 H   0  0  0  0  0  0  0  0  0  0  0  0
   18.2178  -15.4586    0.0000 H   0  0  0  0  0  0  0  0  0  0  0  0
   15.3362  -11.0614    0.0000 H   0  0  0  0  0  0  0  0  0  0  0  0
   14.5215  -11.7495    0.0000 H   0  0  0  0  0  0  0  0  0  0  0  0
   15.8196   -9.5540    0.0000 H   0  0  0  0  0  0  0  0  0  0  0  0
   14.8930  -11.1590    0.0000 H   0  0  0  0  0  0  0  0  0  0  0  0
   14.8930  -10.0890    0.0000 H   0  0  0  0  0  0  0  0  0  0  0  0
   21.3535  -11.1590    0.0000 H   0  0  0  0  0  0  0  0  0  0  0  0
   20.4269   -9.5540    0.0000 H   0  0  0  0  0  0  0  0  0  0  0  0
   21.3535  -10.0890    0.0000 H   0  0  0  0  0  0  0  0  0  0  0  0
   25.7281  -14.5561    0.0000 H   0  0  0  0  0  0  0  0  0  0  0  0
   24.8015  -12.9511    0.0000 H   0  0  0  0  0  0  0  0  0  0  0  0
   25.7281  -13.4861    0.0000 H   0  0  0  0  0  0  0  0  0  0  0  0
   20.7904  -18.1325    0.0000 H   0  0  0  0  0  0  0  0  0  0  0  0
   22.4673  -18.9218    0.0000 H   0  0  0  0  0  0  0  0  0  0  0  0
   21.4010  -19.0112    0.0000 H   0  0  0  0  0  0  0  0  0  0  0  0
   20.1865  -21.6610    0.0000 H   0  0  0  0  0  0  0  0  0  0  0  0
   21.1131  -20.0560    0.0000 H   0  0  0  0  0  0  0  0  0  0  0  0
   21.1131  -21.1260    0.0000 H   0  0  0  0  0  0  0  0  0  0  0  0
   14.4991  -19.3669    0.0000 H   0  0  0  0  0  0  0  0  0  0  0  0
   14.8109  -21.1937    0.0000 H   0  0  0  0  0  0  0  0  0  0  0  0
   14.1276  -20.3703    0.0000 H   0  0  0  0  0  0  0  0  0  0  0  0
   12.6616  -18.2576    0.0000 H   0  0  0  0  0  0  0  0  0  0  0  0
   14.5149  -18.2578    0.0000 H   0  0  0  0  0  0  0  0  0  0  0  0
   13.5882  -18.7927    0.0000 H   0  0  0  0  0  0  0  0  0  0  0  0
   12.5039  -11.5778    0.0000 H   0  0  0  0  0  0  0  0  0  0  0  0
   10.7394  -12.1447    0.0000 H   0  0  0  0  0  0  0  0  0  0  0  0
   11.4580  -11.3519    0.0000 H   0  0  0  0  0  0  0  0  0  0  0  0
   17.1966   -8.7590    0.0000 H   0  0  0  0  0  0  0  0  0  0  0  0
   18.1232   -8.2240    0.0000 H   0  0  0  0  0  0  0  0  0  0  0  0
   25.7281  -16.1461    0.0000 H   0  0  0  0  0  0  0  0  0  0  0  0
   25.7281  -17.2161    0.0000 H   0  0  0  0  0  0  0  0  0  0  0  0
   18.8094  -22.4560    0.0000 H   0  0  0  0  0  0  0  0  0  0  0  0
   17.8828  -22.9910    0.0000 H   0  0  0  0  0  0  0  0  0  0  0  0
   11.2848  -17.4626    0.0000 H   0  0  0  0  0  0  0  0  0  0  0  0
   10.3581  -16.9276    0.0000 H   0  0  0  0  0  0  0  0  0  0  0  0
    7.9409  -11.7458    0.0000 H   0  0  0  0  0  0  0  0  0  0  0  0
   10.0714  -10.9306    0.0000 H   0  0  0  0  0  0  0  0  0  0  0  0
    8.2790  -10.4595    0.0000 H   0  0  0  0  0  0  0  0  0  0  0  0
    9.3112  -10.1777    0.0000 H   0  0  0  0  0  0  0  0  0  0  0  0
    6.6579  -12.0961    0.0000 H   0  0  0  0  0  0  0  0  0  0  0  0
    7.1461  -13.8839    0.0000 H   0  0  0  0  0  0  0  0  0  0  0  0
    6.3859  -13.1309    0.0000 H   0  0  0  0  0  0  0  0  0  0  0  0
    5.7420  -17.0956    0.0000 H   0  0  0  0  0  0  0  0  0  0  0  0
    6.5602  -14.9662    0.0000 H   0  0  0  0  0  0  0  0  0  0  0  0
    5.0115  -15.9842    0.0000 H   0  0  0  0  0  0  0  0  0  0  0  0
    5.4920  -15.0282    0.0000 H   0  0  0  0  0  0  0  0  0  0  0  0
    5.1449  -18.2840    0.0000 H   0  0  0  0  0  0  0  0  0  0  0  0
    6.8009  -19.1161    0.0000 H   0  0  0  0  0  0  0  0  0  0  0  0
    5.7327  -19.1781    0.0000 H   0  0  0  0  0  0  0  0  0  0  0  0
   15.6360   -6.4657    0.0000 H   0  0  0  0  0  0  0  0  0  0  0  0
   17.1952   -4.8006    0.0000 H   0  0  0  0  0  0  0  0  0  0  0  0
   15.3773   -5.1611    0.0000 H   0  0  0  0  0  0  0  0  0  0  0  0
   16.1822   -4.4560    0.0000 H   0  0  0  0  0  0  0  0  0  0  0  0
   14.6356   -7.3421    0.0000 H   0  0  0  0  0  0  0  0  0  0  0  0
   15.8568   -8.7361    0.0000 H   0  0  0  0  0  0  0  0  0  0  0  0
   14.8438   -8.3917    0.0000 H   0  0  0  0  0  0  0  0  0  0  0  0
   23.2535   -7.7793    0.0000 H   0  0  0  0  0  0  0  0  0  0  0  0
   23.5234  -10.0444    0.0000 H   0  0  0  0  0  0  0  0  0  0  0  0
   24.4182   -8.4214    0.0000 H   0  0  0  0  0  0  0  0  0  0  0  0
   24.4393   -9.4912    0.0000 H   0  0  0  0  0  0  0  0  0  0  0  0
   23.2272   -6.4496    0.0000 H   0  0  0  0  0  0  0  0  0  0  0  0
   21.3743   -6.4862    0.0000 H   0  0  0  0  0  0  0  0  0  0  0  0
   22.2901   -5.9330    0.0000 H   0  0  0  0  0  0  0  0  0  0  0  0
   29.4366  -18.7833    0.0000 H   0  0  0  0  0  0  0  0  0  0  0  0
   28.0484  -20.5934    0.0000 H   0  0  0  0  0  0  0  0  0  0  0  0
   29.8221  -20.0562    0.0000 H   0  0  0  0  0  0  0  0  0  0  0  0
   29.0903  -20.8369    0.0000 H   0  0  0  0  0  0  0  0  0  0  0  0
   30.3462  -17.8130    0.0000 H   0  0  0  0  0  0  0  0  0  0  0  0
   28.9942  -16.5455    0.0000 H   0  0  0  0  0  0  0  0  0  0  0  0
   30.0361  -16.7890    0.0000 H   0  0  0  0  0  0  0  0  0  0  0  0
   26.9816  -21.8335    0.0000 H   0  0  0  0  0  0  0  0  0  0  0  0
   24.9934  -22.9518    0.0000 H   0  0  0  0  0  0  0  0  0  0  0  0
   26.8355  -23.1554    0.0000 H   0  0  0  0  0  0  0  0  0  0  0  0
   25.8557  -23.5853    0.0000 H   0  0  0  0  0  0  0  0  0  0  0  0
   28.1994  -21.2991    0.0000 H   0  0  0  0  0  0  0  0  0  0  0  0
   27.4548  -19.6020    0.0000 H   0  0  0  0  0  0  0  0  0  0  0  0
   28.3170  -20.2356    0.0000 H   0  0  0  0  0  0  0  0  0  0  0  0
   19.7544  -25.6569    0.0000 H   0  0  0  0  0  0  0  0  0  0  0  0
   17.7135  -26.6758    0.0000 H   0  0  0  0  0  0  0  0  0  0  0  0
   19.5432  -26.9701    0.0000 H   0  0  0  0  0  0  0  0  0  0  0  0
   18.5434  -27.3511    0.0000 H   0  0  0  0  0  0  0  0  0  0  0  0
   20.9973  -25.1832    0.0000 H   0  0  0  0  0  0  0  0  0  0  0  0
   20.3372  -23.4515    0.0000 H   0  0  0  0  0  0  0  0  0  0  0  0
   21.1671  -24.1268    0.0000 H   0  0  0  0  0  0  0  0  0  0  0  0
   11.8112  -22.1244    0.0000 H   0  0  0  0  0  0  0  0  0  0  0  0
   12.4062  -19.9222    0.0000 H   0  0  0  0  0  0  0  0  0  0  0  0
   10.9703  -21.0940    0.0000 H   0  0  0  0  0  0  0  0  0  0  0  0
   11.3500  -20.0936    0.0000 H   0  0  0  0  0  0  0  0  0  0  0  0
   11.3392  -23.3678    0.0000 H   0  0  0  0  0  0  0  0  0  0  0  0
   13.0719  -24.0255    0.0000 H   0  0  0  0  0  0  0  0  0  0  0  0
   12.0157  -24.1969    0.0000 H   0  0  0  0  0  0  0  0  0  0  0  0
  1  2  1  0  0  0  0
  1  3  2  0  0  0  0
  1  7  1  0  0  0  0
  2  4  2  0  0  0  0
  2  8  1  0  0  0  0
  3  5  1  0  0  0  0
  4  6  1  0  0  0  0
  4 39  1  0  0  0  0
  5  6  2  0  0  0  0
  5 40  1  0  0  0  0
  6 44  1  0  0  0  0
  7 85  1  0  0  0  0
  7 86  1  0  0  0  0
  7 87  1  0  0  0  0
  8 13  1  0  0  0  0
  8 88  1  0  0  0  0
  8 89  1  0  0  0  0
  9 10  1  0  0  0  0
  9 11  2  0  0  0  0
  9 16  1  0  0  0  0
 10 12  2  0  0  0  0
 10 37  1  0  0  0  0
 11 13  1  0  0  0  0
 11 15  1  0  0  0  0
 12 14  1  0  0  0  0
 12 43  1  0  0  0  0
 13 14  2  0  0  0  0
 14 38  1  0  0  0  0
 15 90  1  0  0  0  0
 15 91  1  0  0  0  0
 15 92  1  0  0  0  0
 16 22  1  0  0  0  0
 16 93  1  0  0  0  0
 16 94  1  0  0  0  0
 17 18  1  0  0  0  0
 17 19  2  0  0  0  0
 17 35  1  0  0  0  0
 18 20  2  0  0  0  0
 18 42  1  0  0  0  0
 19 21  1  0  0  0  0
 19 24  1  0  0  0  0
 20 22  1  0  0  0  0
 20 36  1  0  0  0  0
 21 22  2  0  0  0  0
 21 23  1  0  0  0  0
 23 95  1  0  0  0  0
 23 96  1  0  0  0  0
 23 97  1  0  0  0  0
 24 26  1  0  0  0  0
 24 98  1  0  0  0  0
 24 99  1  0  0  0  0
 25 26  1  0  0  0  0
 25 27  2  0  0  0  0
 25 34  1  0  0  0  0
 26 28  2  0  0  0  0
 27 29  1  0  0  0  0
 27 41  1  0  0  0  0
 28 30  1  0  0  0  0
 28 31  1  0  0  0  0
 29 30  2  0  0  0  0
 29 33  1  0  0  0  0
 30 32  1  0  0  0  0
 31100  1  0  0  0  0
 31101  1  0  0  0  0
 31102  1  0  0  0  0
 32  3  1  0  0  0  0
 32103  1  0  0  0  0
 32104  1  0  0  0  0
 33105  1  0  0  0  0
 33106  1  0  0  0  0
 33107  1  0  0  0  0
 34108  1  0  0  0  0
 34109  1  0  0  0  0
 34110  1  0  0  0  0
 35111  1  0  0  0  0
 35112  1  0  0  0  0
 35113  1  0  0  0  0
 36114  1  0  0  0  0
 36115  1  0  0  0  0
 36116  1  0  0  0  0
 37117  1  0  0  0  0
 37118  1  0  0  0  0
 37119  1  0  0  0  0
 38120  1  0  0  0  0
 38121  1  0  0  0  0
 38122  1  0  0  0  0
 39123  1  0  0  0  0
 39124  1  0  0  0  0
 39125  1  0  0  0  0
 40126  1  0  0  0  0
 40127  1  0  0  0  0
 40128  1  0  0  0  0
 41 49  1  0  0  0  0
 41129  1  0  0  0  0
 41130  1  0  0  0  0
 42 45  1  0  0  0  0
 42131  1  0  0  0  0
 42132  1  0  0  0  0
 43 57  1  0  0  0  0
 43133  1  0  0  0  0
 43134  1  0  0  0  0
 44 53  1  0  0  0  0
 44135  1  0  0  0  0
 44136  1  0  0  0  0
 45 46  2  0  0  0  0
 45 47  1  0  0  0  0
 45 48  1  0  0  0  0
 47 73  1  0  0  0  0
 48 76  1  0  0  0  0
 49 50  2  0  0  0  0
 49 51  1  0  0  0  0
 49 52  1  0  0  0  0
 51 67  1  0  0  0  0
 52 70  1  0  0  0  0
 53 54  2  0  0  0  0
 53 55  1  0  0  0  0
 53 56  1  0  0  0  0
 55 64  1  0  0  0  0
 56 61  1  0  0  0  0
 57 58  2  0  0  0  0
 57 59  1  0  0  0  0
 57 60  1  0  0  0  0
 59 79  1  0  0  0  0
 60 82  1  0  0  0  0
 61 62  1  0  0  0  0
 61 63  1  0  0  0  0
 61137  1  0  0  0  0
 62138  1  0  0  0  0
 62139  1  0  0  0  0
 62140  1  0  0  0  0
 63141  1  0  0  0  0
 63142  1  0  0  0  0
 63143  1  0  0  0  0
 64 65  1  0  0  0  0
 64 66  1  0  0  0  0
 64144  1  0  0  0  0
 65145  1  0  0  0  0
 65146  1  0  0  0  0
 65147  1  0  0  0  0
 66148  1  0  0  0  0
 66149  1  0  0  0  0
 66150  1  0  0  0  0
 67 68  1  0  0  0  0
 67 69  1  0  0  0  0
 67151  1  0  0  0  0
 68152  1  0  0  0  0
 68153  1  0  0  0  0
 68154  1  0  0  0  0
 69155  1  0  0  0  0
 69156  1  0  0  0  0
 69157  1  0  0  0  0
 70 71  1  0  0  0  0
 70 72  1  0  0  0  0
 70158  1  0  0  0  0
 71159  1  0  0  0  0
 71160  1  0  0  0  0
 71161  1  0  0  0  0
 72162  1  0  0  0  0
 72163  1  0  0  0  0
 72164  1  0  0  0  0
 73 74  1  0  0  0  0
 73 75  1  0  0  0  0
 73165  1  0  0  0  0
 74166  1  0  0  0  0
 74167  1  0  0  0  0
 74168  1  0  0  0  0
 75169  1  0  0  0  0
 75170  1  0  0  0  0
 75171  1  0  0  0  0
 76 77  1  0  0  0  0
 76 78  1  0  0  0  0
 76172  1  0  0  0  0
 77173  1  0  0  0  0
 77174  1  0  0  0  0
 77175  1  0  0  0  0
 78176  1  0  0  0  0
 78177  1  0  0  0  0
 78178  1  0  0  0  0
 79 80  1  0  0  0  0
 79 81  1  0  0  0  0
 79179  1  0  0  0  0
 80180  1  0  0  0  0
 80181  1  0  0  0  0
 80182  1  0  0  0  0
 81183  1  0  0  0  0
 81184  1  0  0  0  0
 81185  1  0  0  0  0
 82 83  1  0  0  0  0
 82 84  1  0  0  0  0
 82186  1  0  0  0  0
 83187  1  0  0  0  0
 83188  1  0  0  0  0
 83189  1  0  0  0  0
 84190  1  0  0  0  0
 84191  1  0  0  0  0
 84192  1  0  0  0  0
M  END
> <NMREDATA_VERSION>
1.1

> <NMREDATA_LEVEL>
0

> <NMREDATA_SOLVENT>
CDCl3

> <NMREDATA_FORMULA>
C68H108O12P4

> <NMREDATA_SMILES>
CC(OP(=O)(Cc1c(C)c2Cc3c(C)c(Cc4c(c(Cc5c(c(Cc(c1C)c2C)c(C)c(c5C)CP(=O)(OC(C)C)OC(C)C)C)c(c(c4C)CP(=O)(OC(C)C)OC(C)C)C)C)c(c(c3C)CP(=O)(OC(C)C)OC(C)C)C)OC(C)C)C

> <NMREDATA_ASSIGNMENT>
P45, 26.16, 45
P49, 26.16, 49
P53, 26.16, 53
P57, 26.16, 57

> <NMREDATA_1D_31P>
26.16, L=P45
26.16, L=P49
26.16, L=P53
26.16, L=P57

$$$$
