
 OpenBabel08102311392D

 79 81  0  0  0  0  0  0  0  0999 V2000
    9.6145   -7.9640    0.0000 P   0  0  3  0  0  0  0  0  0  0  0  0
    9.7587   -9.3581    0.0000 O   0  0  0  0  0  0  0  0  0  0  0  0
    8.2684   -9.0216    0.0000 C   0  0  0  0  0  0  0  0  0  0  0  0
    6.9064   -8.1082    0.0000 C   0  0  0  0  0  0  0  0  0  0  0  0
    7.0164   -6.4719    0.0000 C   0  0  0  0  0  0  0  0  0  0  0  0
    5.6543   -5.5585    0.0000 N   0  0  0  0  0  0  0  0  0  0  0  0
    8.4885   -5.7490    0.0000 C   0  0  0  0  0  0  0  0  0  0  0  0
    5.7644   -3.9222    0.0000 C   0  0  0  0  0  0  0  0  0  0  0  0
    8.5985   -4.1128    0.0000 C   0  0  0  0  0  0  0  0  0  0  0  0
    7.2364   -3.1994    0.0000 C   0  0  0  0  0  0  0  0  0  0  0  0
    9.5664   -6.5058    0.0000 O   0  0  0  0  0  0  0  0  0  0  0  0
   12.6270   -7.6114    0.0000 C   0  0  3  0  0  0  0  0  0  0  0  0
   13.6065   -8.9268    0.0000 C   0  0  0  0  0  0  0  0  0  0  0  0
   15.2353   -8.7362    0.0000 C   0  0  0  0  0  0  0  0  0  0  0  0
   12.9988  -10.5300    0.0000 C   0  0  0  0  0  0  0  0  0  0  0  0
   16.2148  -10.0516    0.0000 C   0  0  0  0  0  0  0  0  0  0  0  0
   13.9366  -11.7481    0.0000 C   0  0  0  0  0  0  0  0  0  0  0  0
   15.5654  -11.5575    0.0000 C   0  0  0  0  0  0  0  0  0  0  0  0
   13.7246   -5.0337    0.0000 P   0  0  3  0  0  0  0  0  0  0  0  0
   11.9863   -4.4563    0.0000 O   0  0  0  0  0  0  0  0  0  0  0  0
   15.4131   -5.1712    0.0000 C   0  0  0  0  0  0  0  0  0  0  0  0
   15.9005   -6.6040    0.0000 C   0  0  0  0  0  0  0  0  0  0  0  0
   18.8181   -5.9839    0.0000 C   0  0  0  0  0  0  0  0  0  0  0  0
   19.8220   -7.2737    0.0000 N   0  0  0  0  0  0  0  0  0  0  0  0
   19.4331   -4.4695    0.0000 C   0  0  0  0  0  0  0  0  0  0  0  0
   21.4410   -7.0492    0.0000 C   0  0  0  0  0  0  0  0  0  0  0  0
   21.0521   -4.2450    0.0000 C   0  0  0  0  0  0  0  0  0  0  0  0
   22.0560   -5.5349    0.0000 C   0  0  0  0  0  0  0  0  0  0  0  0
   13.6336   -3.3452    0.0000 O   0  0  0  0  0  0  0  0  0  0  0  0
   16.5416  -12.8684    0.0000 O   0  0  0  0  0  0  0  0  0  0  0  0
   13.2894  -13.2489    0.0000 C   0  0  0  0  0  0  0  0  0  0  0  0
   12.9164  -14.8276    0.0000 C   0  0  0  0  0  0  0  0  0  0  0  0
   14.2656  -14.5598    0.0000 C   0  0  0  0  0  0  0  0  0  0  0  0
   14.9128  -13.0590    0.0000 C   0  0  0  0  0  0  0  0  0  0  0  0
   17.8382   -9.8617    0.0000 C   0  0  0  0  0  0  0  0  0  0  0  0
   18.8143  -11.1727    0.0000 C   0  0  0  0  0  0  0  0  0  0  0  0
   18.4854   -8.3609    0.0000 C   0  0  0  0  0  0  0  0  0  0  0  0
   16.8620   -8.5508    0.0000 C   0  0  0  0  0  0  0  0  0  0  0  0
   12.2264   -8.9575    0.0000 O   0  0  0  0  0  0  0  0  0  0  0  0
    8.3086  -10.0908    0.0000 H   0  0  0  0  0  0  0  0  0  0  0  0
    7.3340   -9.5429    0.0000 H   0  0  0  0  0  0  0  0  0  0  0  0
    5.9460   -8.5798    0.0000 H   0  0  0  0  0  0  0  0  0  0  0  0
    6.0177   -7.5122    0.0000 H   0  0  0  0  0  0  0  0  0  0  0  0
    9.3456   -6.3238    0.0000 H   0  0  0  0  0  0  0  0  0  0  0  0
    4.9073   -3.3474    0.0000 H   0  0  0  0  0  0  0  0  0  0  0  0
    9.5248   -3.6579    0.0000 H   0  0  0  0  0  0  0  0  0  0  0  0
    7.3056   -2.1697    0.0000 H   0  0  0  0  0  0  0  0  0  0  0  0
   10.3900   -5.9934    0.0000 H   0  0  0  0  0  0  0  0  0  0  0  0
   15.6439   -7.7886    0.0000 H   0  0  0  0  0  0  0  0  0  0  0  0
   11.9779  -10.6810    0.0000 H   0  0  0  0  0  0  0  0  0  0  0  0
   16.0709   -4.3273    0.0000 H   0  0  0  0  0  0  0  0  0  0  0  0
   16.4682   -5.3492    0.0000 H   0  0  0  0  0  0  0  0  0  0  0  0
   15.3719   -7.5343    0.0000 H   0  0  0  0  0  0  0  0  0  0  0  0
   16.5324   -7.4675    0.0000 H   0  0  0  0  0  0  0  0  0  0  0  0
   18.7992   -3.6551    0.0000 H   0  0  0  0  0  0  0  0  0  0  0  0
   22.0749   -7.8636    0.0000 H   0  0  0  0  0  0  0  0  0  0  0  0
   21.4405   -3.2889    0.0000 H   0  0  0  0  0  0  0  0  0  0  0  0
   23.0782   -5.3932    0.0000 H   0  0  0  0  0  0  0  0  0  0  0  0
   14.4463   -2.8157    0.0000 H   0  0  0  0  0  0  0  0  0  0  0  0
   16.1706  -13.7288    0.0000 H   0  0  0  0  0  0  0  0  0  0  0  0
   11.8916  -15.1352    0.0000 H   0  0  0  0  0  0  0  0  0  0  0  0
   13.6952  -15.5613    0.0000 H   0  0  0  0  0  0  0  0  0  0  0  0
   12.6704  -15.8689    0.0000 H   0  0  0  0  0  0  0  0  0  0  0  0
   13.8419  -15.5423    0.0000 H   0  0  0  0  0  0  0  0  0  0  0  0
   15.3283  -14.4354    0.0000 H   0  0  0  0  0  0  0  0  0  0  0  0
   14.9047  -15.4180    0.0000 H   0  0  0  0  0  0  0  0  0  0  0  0
   15.5518  -13.9172    0.0000 H   0  0  0  0  0  0  0  0  0  0  0  0
   15.3365  -12.0765    0.0000 H   0  0  0  0  0  0  0  0  0  0  0  0
   15.9756  -12.9347    0.0000 H   0  0  0  0  0  0  0  0  0  0  0  0
   18.3905  -12.1552    0.0000 H   0  0  0  0  0  0  0  0  0  0  0  0
   19.8771  -11.0484    0.0000 H   0  0  0  0  0  0  0  0  0  0  0  0
   19.4533  -12.0309    0.0000 H   0  0  0  0  0  0  0  0  0  0  0  0
   19.5482   -8.2366    0.0000 H   0  0  0  0  0  0  0  0  0  0  0  0
   17.8464   -7.5027    0.0000 H   0  0  0  0  0  0  0  0  0  0  0  0
   18.9091   -7.3784    0.0000 H   0  0  0  0  0  0  0  0  0  0  0  0
   17.2857   -7.5683    0.0000 H   0  0  0  0  0  0  0  0  0  0  0  0
   15.7993   -8.6752    0.0000 H   0  0  0  0  0  0  0  0  0  0  0  0
   16.2229   -7.6926    0.0000 H   0  0  0  0  0  0  0  0  0  0  0  0
   11.2829   -9.1827    0.0000 H   0  0  0  0  0  0  0  0  0  0  0  0
  1  2  2  0  0  0  0
  1  3  1  0  0  0  0
  1 11  1  0  0  0  0
  1 12  1  0  0  0  0
  3  4  1  0  0  0  0
  3 40  1  0  0  0  0
  3 41  1  0  0  0  0
  4  5  1  0  0  0  0
  4 42  1  0  0  0  0
  4 43  1  0  0  0  0
  5  6  1  0  0  0  0
  5  7  2  0  0  0  0
  6  8  2  0  0  0  0
  7  9  1  0  0  0  0
  7 44  1  0  0  0  0
  8 10  1  0  0  0  0
  8 45  1  0  0  0  0
  9 10  2  0  0  0  0
  9 46  1  0  0  0  0
 10 47  1  0  0  0  0
 11 48  1  0  0  0  0
 12 13  1  0  0  0  0
 12 39  1  0  0  0  0
 13 14  1  0  0  0  0
 13 15  2  0  0  0  0
 14 16  2  0  0  0  0
 14 49  1  0  0  0  0
 15 17  1  0  0  0  0
 15 50  1  0  0  0  0
 16 18  1  0  0  0  0
 16 35  1  0  0  0  0
 17 18  2  0  0  0  0
 17 31  1  0  0  0  0
 18 30  1  0  0  0  0
 19 20  2  0  0  0  0
 19 21  1  0  0  0  0
 19 29  1  0  0  0  0
 19 12  1  0  0  0  0
 21 22  1  0  0  0  0
 21 51  1  0  0  0  0
 21 52  1  0  0  0  0
 22 23  1  0  0  0  0
 22 53  1  0  0  0  0
 22 54  1  0  0  0  0
 23 24  1  0  0  0  0
 23 25  2  0  0  0  0
 24 26  2  0  0  0  0
 25 27  1  0  0  0  0
 25 55  1  0  0  0  0
 26 28  1  0  0  0  0
 26 56  1  0  0  0  0
 27 28  2  0  0  0  0
 27 57  1  0  0  0  0
 28 58  1  0  0  0  0
 29 59  1  0  0  0  0
 30 60  1  0  0  0  0
 31 32  1  0  0  0  0
 31 33  1  0  0  0  0
 31 34  1  0  0  0  0
 32 61  1  0  0  0  0
 32 62  1  0  0  0  0
 32 63  1  0  0  0  0
 33 64  1  0  0  0  0
 33 65  1  0  0  0  0
 33 66  1  0  0  0  0
 34 67  1  0  0  0  0
 34 68  1  0  0  0  0
 34 69  1  0  0  0  0
 35 36  1  0  0  0  0
 35 37  1  0  0  0  0
 35 38  1  0  0  0  0
 36 70  1  0  0  0  0
 36 71  1  0  0  0  0
 36 72  1  0  0  0  0
 37 73  1  0  0  0  0
 37 74  1  0  0  0  0
 37 75  1  0  0  0  0
 38 76  1  0  0  0  0
 38 77  1  0  0  0  0
 38 78  1  0  0  0  0
 39 79  1  0  0  0  0
M  END
> <NMREDATA_VERSION>
1.1

> <NMREDATA_LEVEL>
0

> <NMREDATA_SOLVENT>
CD3OD

> <NMREDATA_FORMULA>
C29H40N2O6P2

> <NMREDATA_SMILES>
Oc1c(cc(cc1C(C)(C)C)C(P(=O)(CCc1ccccn1)O)(P(=O)(CCc1ccccn1)O)O)C(C)(C)C

> <NMREDATA_ASSIGNMENT>
P1, 39.80, 1
P19, 39.80, 19

> <NMREDATA_1D_31P>
39.80, L=P1
39.80, L=P19

$$$$
