
 OpenBabel08102311392D

 76 80  0  0  0  0  0  0  0  0999 V2000
   10.1574  -19.9740    0.0000 C   0  0  0  0  0  0  0  0  0  0  0  0
   10.1574  -21.3040    0.0000 C   0  0  0  0  0  0  0  0  0  0  0  0
    9.0055  -19.3090    0.0000 C   0  0  0  0  0  0  0  0  0  0  0  0
    9.0055  -21.9690    0.0000 C   0  0  0  0  0  0  0  0  0  0  0  0
    7.8537  -19.9740    0.0000 C   0  0  0  0  0  0  0  0  0  0  0  0
    7.8537  -21.3040    0.0000 C   0  0  0  0  0  0  0  0  0  0  0  0
   11.3092  -19.3091    0.0000 C   0  0  0  0  0  0  0  0  0  0  0  0
   12.4609  -19.9742    0.0000 C   0  0  0  0  0  0  0  0  0  0  0  0
   11.3091  -21.9690    0.0000 C   0  0  0  0  0  0  0  0  0  0  0  0
   12.4609  -21.3041    0.0000 C   0  0  0  0  0  0  0  0  0  0  0  0
   13.6126  -19.3094    0.0000 C   0  0  0  0  0  0  0  0  0  0  0  0
   14.7643  -19.9745    0.0000 C   0  0  0  0  0  0  0  0  0  0  0  0
   13.6124  -21.9691    0.0000 C   0  0  0  0  0  0  0  0  0  0  0  0
   14.7641  -21.3042    0.0000 C   0  0  0  0  0  0  0  0  0  0  0  0
   11.3092  -17.9791    0.0000 B   0  0  0  0  0  0  0  0  0  0  0  0
   10.2333  -17.1973    0.0000 O   0  0  0  0  0  0  0  0  0  0  0  0
   12.3853  -17.1974    0.0000 O   0  0  0  0  0  0  0  0  0  0  0  0
   10.6443  -15.9324    0.0000 C   0  0  0  0  0  0  0  0  0  0  0  0
   11.9743  -15.9323    0.0000 C   0  0  0  0  0  0  0  0  0  0  0  0
    9.9794  -14.7807    0.0000 C   0  0  0  0  0  0  0  0  0  0  0  0
   10.6445  -13.6290    0.0000 C   0  0  0  0  0  0  0  0  0  0  0  0
   12.6392  -14.7808    0.0000 C   0  0  0  0  0  0  0  0  0  0  0  0
   11.9743  -13.6290    0.0000 C   0  0  0  0  0  0  0  0  0  0  0  0
   13.6128  -17.9794    0.0000 P   0  0  0  0  0  0  0  0  0  0  0  0
   14.7261  -16.6811    0.0000 C   0  0  0  0  0  0  0  0  0  0  0  0
   16.0334  -16.9261    0.0000 C   0  0  0  0  0  0  0  0  0  0  0  0
   14.2847  -15.4265    0.0000 C   0  0  0  0  0  0  0  0  0  0  0  0
   16.2805  -18.7802    0.0000 C   0  0  0  0  0  0  0  0  0  0  0  0
   16.5862  -20.0746    0.0000 C   0  0  0  0  0  0  0  0  0  0  0  0
   17.2486  -17.8683    0.0000 C   0  0  0  0  0  0  0  0  0  0  0  0
    9.0696  -17.9790    0.0000 P   0  0  0  0  0  0  0  0  0  0  0  0
    8.1082  -16.5208    0.0000 C   0  0  0  0  0  0  0  0  0  0  0  0
    8.7037  -15.3316    0.0000 C   0  0  0  0  0  0  0  0  0  0  0  0
    6.7805  -16.5997    0.0000 C   0  0  0  0  0  0  0  0  0  0  0  0
    6.8102  -18.6841    0.0000 C   0  0  0  0  0  0  0  0  0  0  0  0
    5.8323  -17.7827    0.0000 C   0  0  0  0  0  0  0  0  0  0  0  0
    6.5185  -19.9817    0.0000 C   0  0  0  0  0  0  0  0  0  0  0  0
    9.0055  -23.0010    0.0000 H   0  0  0  0  0  0  0  0  0  0  0  0
    6.9600  -19.4580    0.0000 H   0  0  0  0  0  0  0  0  0  0  0  0
    6.9600  -21.8200    0.0000 H   0  0  0  0  0  0  0  0  0  0  0  0
   11.3090  -23.0010    0.0000 H   0  0  0  0  0  0  0  0  0  0  0  0
   15.6581  -19.4586    0.0000 H   0  0  0  0  0  0  0  0  0  0  0  0
   13.6123  -23.0011    0.0000 H   0  0  0  0  0  0  0  0  0  0  0  0
   15.6578  -21.8203    0.0000 H   0  0  0  0  0  0  0  0  0  0  0  0
    8.9474  -14.7806    0.0000 H   0  0  0  0  0  0  0  0  0  0  0  0
   10.1285  -12.7352    0.0000 H   0  0  0  0  0  0  0  0  0  0  0  0
   13.6712  -14.7809    0.0000 H   0  0  0  0  0  0  0  0  0  0  0  0
   12.4903  -12.7353    0.0000 H   0  0  0  0  0  0  0  0  0  0  0  0
   15.4227  -15.8689    0.0000 H   0  0  0  0  0  0  0  0  0  0  0  0
   16.3886  -17.9354    0.0000 H   0  0  0  0  0  0  0  0  0  0  0  0
   16.7299  -16.1139    0.0000 H   0  0  0  0  0  0  0  0  0  0  0  0
   17.0851  -17.1232    0.0000 H   0  0  0  0  0  0  0  0  0  0  0  0
   14.9813  -14.6143    0.0000 H   0  0  0  0  0  0  0  0  0  0  0  0
   13.2330  -15.2294    0.0000 H   0  0  0  0  0  0  0  0  0  0  0  0
   13.9296  -14.4171    0.0000 H   0  0  0  0  0  0  0  0  0  0  0  0
   17.3053  -19.0879    0.0000 H   0  0  0  0  0  0  0  0  0  0  0  0
   15.8073  -20.8083    0.0000 H   0  0  0  0  0  0  0  0  0  0  0  0
   17.6110  -20.3823    0.0000 H   0  0  0  0  0  0  0  0  0  0  0  0
   16.8321  -21.1160    0.0000 H   0  0  0  0  0  0  0  0  0  0  0  0
   18.2734  -18.1760    0.0000 H   0  0  0  0  0  0  0  0  0  0  0  0
   17.0027  -16.8269    0.0000 H   0  0  0  0  0  0  0  0  0  0  0  0
   18.0275  -17.1346    0.0000 H   0  0  0  0  0  0  0  0  0  0  0  0
    7.5192  -15.6275    0.0000 H   0  0  0  0  0  0  0  0  0  0  0  0
    9.7718  -15.2681    0.0000 H   0  0  0  0  0  0  0  0  0  0  0  0
    8.1147  -14.4383    0.0000 H   0  0  0  0  0  0  0  0  0  0  0  0
    9.1828  -14.3749    0.0000 H   0  0  0  0  0  0  0  0  0  0  0  0
    6.1915  -15.7064    0.0000 H   0  0  0  0  0  0  0  0  0  0  0  0
    6.3014  -17.5565    0.0000 H   0  0  0  0  0  0  0  0  0  0  0  0
    5.7124  -16.6632    0.0000 H   0  0  0  0  0  0  0  0  0  0  0  0
    5.7888  -19.0028    0.0000 H   0  0  0  0  0  0  0  0  0  0  0  0
    6.0670  -16.7388    0.0000 H   0  0  0  0  0  0  0  0  0  0  0  0
    4.8109  -18.1014    0.0000 H   0  0  0  0  0  0  0  0  0  0  0  0
    5.0455  -17.0575    0.0000 H   0  0  0  0  0  0  0  0  0  0  0  0
    5.4971  -20.3004    0.0000 H   0  0  0  0  0  0  0  0  0  0  0  0
    7.3052  -20.7069    0.0000 H   0  0  0  0  0  0  0  0  0  0  0  0
    6.2838  -21.0256    0.0000 H   0  0  0  0  0  0  0  0  0  0  0  0
  1  3  2  0  0  0  0
  1  7  1  0  0  0  0
  1  2  1  0  0  0  0
  2  4  2  0  0  0  0
  2  9  1  0  0  0  0
  3  5  1  0  0  0  0
  3 31  1  0  0  0  0
  4  6  1  0  0  0  0
  4 38  1  0  0  0  0
  5  6  2  0  0  0  0
  5 39  1  0  0  0  0
  6 40  1  0  0  0  0
  7  8  2  0  0  0  0
  7 15  1  0  0  0  0
  8 11  1  0  0  0  0
  8 10  1  0  0  0  0
  9 10  2  0  0  0  0
  9 41  1  0  0  0  0
 10 13  1  0  0  0  0
 11 12  2  0  0  0  0
 11 24  1  0  0  0  0
 12 14  1  0  0  0  0
 12 42  1  0  0  0  0
 13 14  2  0  0  0  0
 13 43  1  0  0  0  0
 14 44  1  0  0  0  0
 15 16  1  0  0  0  0
 15 17  1  0  0  0  0
 16 18  1  0  0  0  0
 17 19  1  0  0  0  0
 18 20  1  0  0  0  0
 18 19  2  0  0  0  0
 19 22  1  0  0  0  0
 20 21  2  0  0  0  0
 20 45  1  0  0  0  0
 21 23  1  0  0  0  0
 21 46  1  0  0  0  0
 22 23  2  0  0  0  0
 22 47  1  0  0  0  0
 23 48  1  0  0  0  0
 24 25  1  0  0  0  0
 24 28  1  0  0  0  0
 25 26  1  0  0  0  0
 25 27  1  0  0  0  0
 25 49  1  0  0  0  0
 26 50  1  0  0  0  0
 26 51  1  0  0  0  0
 26 52  1  0  0  0  0
 27 53  1  0  0  0  0
 27 54  1  0  0  0  0
 27 55  1  0  0  0  0
 28 29  1  0  0  0  0
 28 30  1  0  0  0  0
 28 56  1  0  0  0  0
 29 57  1  0  0  0  0
 29 58  1  0  0  0  0
 29 59  1  0  0  0  0
 30 60  1  0  0  0  0
 30 61  1  0  0  0  0
 30 62  1  0  0  0  0
 31 32  1  0  0  0  0
 31 35  1  0  0  0  0
 32 33  1  0  0  0  0
 32 34  1  0  0  0  0
 32 63  1  0  0  0  0
 33 64  1  0  0  0  0
 33 65  1  0  0  0  0
 33 66  1  0  0  0  0
 34 67  1  0  0  0  0
 34 68  1  0  0  0  0
 34 69  1  0  0  0  0
 35 36  1  0  0  0  0
 35 37  1  0  0  0  0
 35 70  1  0  0  0  0
 36 71  1  0  0  0  0
 36 72  1  0  0  0  0
 36 73  1  0  0  0  0
 37 74  1  0  0  0  0
 37 75  1  0  0  0  0
 37 76  1  0  0  0  0
M  END
> <NMREDATA_VERSION>
1.1

> <NMREDATA_LEVEL>
0

> <NMREDATA_SOLVENT>
CDCl3

> <NMREDATA_FORMULA>
C32H39BO2P2

> <NMREDATA_SMILES>
CC(P(c1cccc2c1c(b1oc3c(o1)cccc3)c1c(c2)cccc1P(C(C)C)C(C)C)C(C)C)C

> <NMREDATA_ASSIGNMENT>
P24, 0.97, 24
P31, 0.97, 31

> <NMREDATA_1D_31P>
0.97, L=P24
0.97, L=P31

$$$$
