
 OpenBabel08102311392D

 87 90  0  0  0  0  0  0  0  0999 V2000
   14.5640  -12.2184    0.0000 C    0  0  0  0  0  0  0  0  0  0  0  0
   14.5640  -13.5484    0.0000 C    0  0  0  0  0  0  0  0  0  0  0  0
   13.4121  -11.5534    0.0000 C    0  0  0  0  0  0  0  0  0  0  0  0
   13.4121  -14.2134    0.0000 C    0  0  0  0  0  0  0  0  0  0  0  0
   12.2603  -12.2184    0.0000 C    0  0  0  0  0  0  0  0  0  0  0  0
   12.2603  -13.5484    0.0000 C    0  0  0  0  0  0  0  0  0  0  0  0
   16.2324  -14.6781    0.0000 C    0  0  0  0  0  0  0  0  0  0  0  0
   20.9256  -12.4587    0.0000 C    0  0  0  0  0  0  0  0  0  0  0  0
   20.9256  -13.7887    0.0000 C    0  0  0  0  0  0  0  0  0  0  0  0
   19.7737  -11.7937    0.0000 C    0  0  0  0  0  0  0  0  0  0  0  0
   19.7737  -14.4537    0.0000 C    0  0  0  0  0  0  0  0  0  0  0  0
   18.6219  -12.4587    0.0000 C    0  0  0  0  0  0  0  0  0  0  0  0
   18.6219  -13.7887    0.0000 C    0  0  0  0  0  0  0  0  0  0  0  0
   19.7736  -10.4637    0.0000 C    0  0  0  0  0  0  0  0  0  0  0  0
   13.4121  -10.2234    0.0000 C    0  0  0  0  0  0  0  0  0  0  0  0
   22.0774  -14.4538    0.0000 C    0  0  0  0  0  0  0  0  0  0  0  0
   22.0774  -15.7838    0.0000 C    0  0  0  0  0  0  0  0  0  0  0  0
   23.2292  -13.7888    0.0000 C    0  0  0  0  0  0  0  0  0  0  0  0
   22.0774  -13.1238    0.0000 C    0  0  0  0  0  0  0  0  0  0  0  0
   11.1085  -14.2134    0.0000 C    0  0  0  0  0  0  0  0  0  0  0  0
    9.9567  -13.5484    0.0000 C    0  0  0  0  0  0  0  0  0  0  0  0
   11.1085  -15.5434    0.0000 C    0  0  0  0  0  0  0  0  0  0  0  0
   12.2603  -14.8784    0.0000 C    0  0  0  0  0  0  0  0  0  0  0  0
   13.4282  -16.3286    0.0000 O    0  0  0  0  0  0  0  0  0  0  0  0
   19.7898  -16.6811    0.0000 O    0  0  0  0  0  0  0  0  0  0  0  0
   15.3190  -18.5719    0.0000 P    0  0  3  0  0  0  0  0  0  0  0  0
   18.3316  -18.8283    0.0000 P    0  0  3  0  0  0  0  0  0  0  0  0
   16.7292  -17.3221    0.0000 N    0  0  0  0  0  0  0  0  0  0  0  0
   16.7486  -15.9922    0.0000 C    0  0  0  0  0  0  0  0  0  0  0  0
   15.5274  -15.6716    0.0000 C    0  0  0  0  0  0  0  0  0  0  0  0
   16.8253  -15.3190    0.0000 C    0  0  0  0  0  0  0  0  0  0  0  0
   17.7227  -16.0241    0.0000 C    0  0  0  0  0  0  0  0  0  0  0  0
   16.7292  -19.9340    0.0000 N    0  0  0  0  0  0  0  0  0  0  0  0
   16.6330  -21.5364    0.0000 C    0  0  0  0  0  0  0  0  0  0  0  0
   15.4434  -22.1312    0.0000 C    0  0  0  0  0  0  0  0  0  0  0  0
   17.7429  -22.2692    0.0000 C    0  0  0  0  0  0  0  0  0  0  0  0
   17.8226  -20.9416    0.0000 C    0  0  0  0  0  0  0  0  0  0  0  0
   19.8378  -19.4372    0.0000 Se   0  0  0  0  0  0  0  0  0  0  0  0
   14.0692  -19.3892    0.0000 Se   0  0  0  0  0  0  0  0  0  0  0  0
   15.4577  -11.7024    0.0000 H    0  0  0  0  0  0  0  0  0  0  0  0
   11.3666  -11.7024    0.0000 H    0  0  0  0  0  0  0  0  0  0  0  0
   16.1049  -15.7405    0.0000 H    0  0  0  0  0  0  0  0  0  0  0  0
   17.0731  -15.3400    0.0000 H    0  0  0  0  0  0  0  0  0  0  0  0
   21.8193  -11.9427    0.0000 H    0  0  0  0  0  0  0  0  0  0  0  0
   17.7282  -11.9427    0.0000 H    0  0  0  0  0  0  0  0  0  0  0  0
   20.7002   -9.9286    0.0000 H    0  0  0  0  0  0  0  0  0  0  0  0
   18.8469   -9.9288    0.0000 H    0  0  0  0  0  0  0  0  0  0  0  0
   19.7735   -9.3937    0.0000 H    0  0  0  0  0  0  0  0  0  0  0  0
   14.3387   -9.6884    0.0000 H    0  0  0  0  0  0  0  0  0  0  0  0
   12.4855   -9.6884    0.0000 H    0  0  0  0  0  0  0  0  0  0  0  0
   13.4121   -9.1534    0.0000 H    0  0  0  0  0  0  0  0  0  0  0  0
   21.1508  -16.3188    0.0000 H    0  0  0  0  0  0  0  0  0  0  0  0
   23.0040  -16.3188    0.0000 H    0  0  0  0  0  0  0  0  0  0  0  0
   22.0774  -16.8538    0.0000 H    0  0  0  0  0  0  0  0  0  0  0  0
   24.1558  -14.3238    0.0000 H    0  0  0  0  0  0  0  0  0  0  0  0
   23.2292  -12.7188    0.0000 H    0  0  0  0  0  0  0  0  0  0  0  0
   24.1558  -13.2538    0.0000 H    0  0  0  0  0  0  0  0  0  0  0  0
   23.0040  -12.5888    0.0000 H    0  0  0  0  0  0  0  0  0  0  0  0
   21.1508  -12.5888    0.0000 H    0  0  0  0  0  0  0  0  0  0  0  0
   22.0774  -12.0538    0.0000 H    0  0  0  0  0  0  0  0  0  0  0  0
    9.9567  -12.4784    0.0000 H    0  0  0  0  0  0  0  0  0  0  0  0
    9.0301  -14.0834    0.0000 H    0  0  0  0  0  0  0  0  0  0  0  0
    9.0301  -13.0134    0.0000 H    0  0  0  0  0  0  0  0  0  0  0  0
   10.1819  -16.0784    0.0000 H    0  0  0  0  0  0  0  0  0  0  0  0
   12.0351  -16.0784    0.0000 H    0  0  0  0  0  0  0  0  0  0  0  0
   11.1085  -16.6134    0.0000 H    0  0  0  0  0  0  0  0  0  0  0  0
   12.2603  -15.9484    0.0000 H    0  0  0  0  0  0  0  0  0  0  0  0
   13.1869  -14.3434    0.0000 H    0  0  0  0  0  0  0  0  0  0  0  0
   13.1869  -15.4134    0.0000 H    0  0  0  0  0  0  0  0  0  0  0  0
   15.2452  -14.6395    0.0000 H    0  0  0  0  0  0  0  0  0  0  0  0
   14.7746  -16.4320    0.0000 H    0  0  0  0  0  0  0  0  0  0  0  0
   14.4925  -15.3999    0.0000 H    0  0  0  0  0  0  0  0  0  0  0  0
   17.8066  -14.8923    0.0000 H    0  0  0  0  0  0  0  0  0  0  0  0
   15.9652  -14.6825    0.0000 H    0  0  0  0  0  0  0  0  0  0  0  0
   16.9464  -14.2559    0.0000 H    0  0  0  0  0  0  0  0  0  0  0  0
   18.2271  -16.9678    0.0000 H    0  0  0  0  0  0  0  0  0  0  0  0
   18.2877  -15.1155    0.0000 H    0  0  0  0  0  0  0  0  0  0  0  0
   18.7921  -16.0591    0.0000 H    0  0  0  0  0  0  0  0  0  0  0  0
   14.5505  -21.5416    0.0000 H    0  0  0  0  0  0  0  0  0  0  0  0
   15.3793  -23.1993    0.0000 H    0  0  0  0  0  0  0  0  0  0  0  0
   14.4864  -22.6097    0.0000 H    0  0  0  0  0  0  0  0  0  0  0  0
   17.6788  -23.3373    0.0000 H    0  0  0  0  0  0  0  0  0  0  0  0
   18.6999  -21.7907    0.0000 H    0  0  0  0  0  0  0  0  0  0  0  0
   18.6358  -22.8588    0.0000 H    0  0  0  0  0  0  0  0  0  0  0  0
   18.7155  -21.5312    0.0000 H    0  0  0  0  0  0  0  0  0  0  0  0
   17.8867  -19.8735    0.0000 H    0  0  0  0  0  0  0  0  0  0  0  0
   18.7796  -20.4631    0.0000 H    0  0  0  0  0  0  0  0  0  0  0  0
  1  2  1  0  0  0  0
  1  3  2  0  0  0  0
  1 40  1  0  0  0  0
  2  4  2  0  0  0  0
  2  7  1  0  0  0  0
  3  5  1  0  0  0  0
  3 15  1  0  0  0  0
  4  6  1  0  0  0  0
  4 24  1  0  0  0  0
  5  6  2  0  0  0  0
  5 41  1  0  0  0  0
  6 20  1  0  0  0  0
  7 13  1  0  0  0  0
  7 42  1  0  0  0  0
  7 43  1  0  0  0  0
  8  9  1  0  0  0  0
  8 10  2  0  0  0  0
  8 44  1  0  0  0  0
  9 11  2  0  0  0  0
  9 16  1  0  0  0  0
 10 12  1  0  0  0  0
 10 14  1  0  0  0  0
 11 13  1  0  0  0  0
 11 25  1  0  0  0  0
 12 13  2  0  0  0  0
 12 45  1  0  0  0  0
 14 46  1  0  0  0  0
 14 47  1  0  0  0  0
 14 48  1  0  0  0  0
 15 49  1  0  0  0  0
 15 50  1  0  0  0  0
 15 51  1  0  0  0  0
 16 17  1  0  0  0  0
 16 18  1  0  0  0  0
 16 19  1  0  0  0  0
 17 52  1  0  0  0  0
 17 53  1  0  0  0  0
 17 54  1  0  0  0  0
 18 55  1  0  0  0  0
 18 56  1  0  0  0  0
 18 57  1  0  0  0  0
 19 58  1  0  0  0  0
 19 59  1  0  0  0  0
 19 60  1  0  0  0  0
 20 21  1  0  0  0  0
 20 22  1  0  0  0  0
 20 23  1  0  0  0  0
 21 61  1  0  0  0  0
 21 62  1  0  0  0  0
 21 63  1  0  0  0  0
 22 64  1  0  0  0  0
 22 65  1  0  0  0  0
 22 66  1  0  0  0  0
 23 67  1  0  0  0  0
 23 68  1  0  0  0  0
 23 69  1  0  0  0  0
 24 26  1  0  0  0  0
 25 27  1  0  0  0  0
 26 28  1  0  0  0  0
 26 33  1  0  0  0  0
 26 39  2  0  0  0  0
 27 38  2  0  0  0  0
 28 27  1  0  0  0  0
 28 29  1  0  0  0  0
 29 30  1  0  0  0  0
 29 31  1  0  0  0  0
 29 32  1  0  0  0  0
 30 70  1  0  0  0  0
 30 71  1  0  0  0  0
 30 72  1  0  0  0  0
 31 73  1  0  0  0  0
 31 74  1  0  0  0  0
 31 75  1  0  0  0  0
 32 76  1  0  0  0  0
 32 77  1  0  0  0  0
 32 78  1  0  0  0  0
 33 27  1  0  0  0  0
 33 34  1  0  0  0  0
 34 35  1  0  0  0  0
 34 36  1  0  0  0  0
 34 37  1  0  0  0  0
 35 79  1  0  0  0  0
 35 80  1  0  0  0  0
 35 81  1  0  0  0  0
 36 82  1  0  0  0  0
 36 83  1  0  0  0  0
 36 84  1  0  0  0  0
 37 85  1  0  0  0  0
 37 86  1  0  0  0  0
 37 87  1  0  0  0  0
M  END
> <NMREDATA_VERSION>
1.1

> <NMREDATA_LEVEL>
0

> <NMREDATA_SOLVENT>
CDCl3

> <NMREDATA_FORMULA>
C31H48N2O2P2Se2

> <NMREDATA_SMILES>
Cc1cc2Cc3cc(C)cc(c3OP3(=[Se])N(P(=[Se])(Oc2c(c1)C(C)(C)C)N3C(C)(C)C)C(C)(C)C)C(C)(C)C

> <NMREDATA_ASSIGNMENT>
P26, 21.70, 26
P27, 21.70, 27

> <NMREDATA_1D_31P>
21.70, L=P26
21.70, L=P27

$$$$
