
 OpenBabel08102311392D

 82 84  0  0  0  0  0  0  0  0999 V2000
   13.0757  -14.0211    0.0000 N   0  0  0  0  0  0  0  0  0  0  0  0
   11.4233   -8.9815    0.0000 C   0  0  0  0  0  0  0  0  0  0  0  0
   13.3641   -8.7652    0.0000 N   0  0  0  0  0  0  0  0  0  0  0  0
   15.4312   -8.6690    0.0000 C   0  0  3  0  0  0  0  0  0  0  0  0
   16.7753  -10.7121    0.0000 C   0  0  0  0  0  0  0  0  0  0  0  0
   16.7753  -12.0421    0.0000 C   0  0  0  0  0  0  0  0  0  0  0  0
   15.6234  -10.0471    0.0000 C   0  0  0  0  0  0  0  0  0  0  0  0
   15.6234  -12.7071    0.0000 C   0  0  0  0  0  0  0  0  0  0  0  0
   14.4717  -10.7121    0.0000 C   0  0  0  0  0  0  0  0  0  0  0  0
   14.4717  -12.0421    0.0000 C   0  0  0  0  0  0  0  0  0  0  0  0
   18.1233   -7.7557    0.0000 P   0  0  0  0  0  0  0  0  0  0  0  0
   19.1231   -8.6327    0.0000 O   0  0  0  0  0  0  0  0  0  0  0  0
   18.3829   -6.4513    0.0000 O   0  0  0  0  0  0  0  0  0  0  0  0
   17.1235   -6.8786    0.0000 O   0  0  0  0  0  0  0  0  0  0  0  0
   15.6235  -13.8288    0.0000 C   0  0  3  0  0  0  0  0  0  0  0  0
   17.8829  -14.4698    0.0000 P   0  0  0  0  0  0  0  0  0  0  0  0
   19.2708  -14.4530    0.0000 O   0  0  0  0  0  0  0  0  0  0  0  0
   18.8370  -13.5432    0.0000 O   0  0  0  0  0  0  0  0  0  0  0  0
   16.7995  -15.5281    0.0000 O   0  0  0  0  0  0  0  0  0  0  0  0
   20.0301   -6.0571    0.0000 C   0  0  0  0  0  0  0  0  0  0  0  0
   21.1358   -6.7141    0.0000 C   0  0  0  0  0  0  0  0  0  0  0  0
   20.5910   -9.3100    0.0000 C   0  0  0  0  0  0  0  0  0  0  0  0
   21.8409   -8.7171    0.0000 C   0  0  0  0  0  0  0  0  0  0  0  0
   20.5910  -13.8288    0.0000 C   0  0  0  0  0  0  0  0  0  0  0  0
   21.8889  -13.0276    0.0000 C   0  0  0  0  0  0  0  0  0  0  0  0
   19.6295  -15.8158    0.0000 C   0  0  0  0  0  0  0  0  0  0  0  0
   21.1839  -16.2805    0.0000 C   0  0  0  0  0  0  0  0  0  0  0  0
   11.4733  -13.9730    0.0000 C   0  0  0  0  0  0  0  0  0  0  0  0
   10.6394  -10.7724    0.0000 C   0  0  0  0  0  0  0  0  0  0  0  0
   11.7984  -12.3467    0.0000 C   0  0  0  0  0  0  0  0  0  0  0  0
   11.0145  -14.1376    0.0000 C   0  0  0  0  0  0  0  0  0  0  0  0
    9.0716  -14.3542    0.0000 C   0  0  0  0  0  0  0  0  0  0  0  0
    7.9126  -12.7799    0.0000 C   0  0  0  0  0  0  0  0  0  0  0  0
    8.6965  -10.9890    0.0000 C   0  0  0  0  0  0  0  0  0  0  0  0
   10.6308  -15.3361    0.0000 C   0  0  0  0  0  0  0  0  0  0  0  0
   11.3900  -16.7472    0.0000 C   0  0  0  0  0  0  0  0  0  0  0  0
   10.5476  -18.1103    0.0000 C   0  0  0  0  0  0  0  0  0  0  0  0
    8.9459  -18.0623    0.0000 C   0  0  0  0  0  0  0  0  0  0  0  0
    8.1867  -16.6511    0.0000 C   0  0  0  0  0  0  0  0  0  0  0  0
    9.0291  -15.2880    0.0000 C   0  0  0  0  0  0  0  0  0  0  0  0
   13.0988  -15.0408    0.0000 H   0  0  0  0  0  0  0  0  0  0  0  0
   10.7889   -8.1198    0.0000 H   0  0  0  0  0  0  0  0  0  0  0  0
   10.3599   -9.1000    0.0000 H   0  0  0  0  0  0  0  0  0  0  0  0
   13.2839   -7.7484    0.0000 H   0  0  0  0  0  0  0  0  0  0  0  0
   14.7477   -9.4923    0.0000 H   0  0  0  0  0  0  0  0  0  0  0  0
   17.6690  -10.1961    0.0000 H   0  0  0  0  0  0  0  0  0  0  0  0
   17.6690  -12.5581    0.0000 H   0  0  0  0  0  0  0  0  0  0  0  0
   13.5780  -10.1961    0.0000 H   0  0  0  0  0  0  0  0  0  0  0  0
   13.5780  -12.5581    0.0000 H   0  0  0  0  0  0  0  0  0  0  0  0
   16.4771  -13.1836    0.0000 H   0  0  0  0  0  0  0  0  0  0  0  0
   20.1907   -4.9992    0.0000 H   0  0  0  0  0  0  0  0  0  0  0  0
   20.9973   -5.5994    0.0000 H   0  0  0  0  0  0  0  0  0  0  0  0
   21.1224   -7.7840    0.0000 H   0  0  0  0  0  0  0  0  0  0  0  0
   22.0691   -6.1908    0.0000 H   0  0  0  0  0  0  0  0  0  0  0  0
   22.0557   -7.2607    0.0000 H   0  0  0  0  0  0  0  0  0  0  0  0
   20.5967  -10.3800    0.0000 H   0  0  0  0  0  0  0  0  0  0  0  0
   21.4968   -9.8795    0.0000 H   0  0  0  0  0  0  0  0  0  0  0  0
   22.7214   -9.3250    0.0000 H   0  0  0  0  0  0  0  0  0  0  0  0
   21.9271   -7.6506    0.0000 H   0  0  0  0  0  0  0  0  0  0  0  0
   22.8076   -8.2585    0.0000 H   0  0  0  0  0  0  0  0  0  0  0  0
   20.7992  -14.8784    0.0000 H   0  0  0  0  0  0  0  0  0  0  0  0
   21.5719  -14.2563    0.0000 H   0  0  0  0  0  0  0  0  0  0  0  0
   22.8309  -13.5351    0.0000 H   0  0  0  0  0  0  0  0  0  0  0  0
   21.8574  -11.9581    0.0000 H   0  0  0  0  0  0  0  0  0  0  0  0
   22.7994  -12.4655    0.0000 H   0  0  0  0  0  0  0  0  0  0  0  0
   18.8605  -16.5598    0.0000 H   0  0  0  0  0  0  0  0  0  0  0  0
   19.8830  -16.8553    0.0000 H   0  0  0  0  0  0  0  0  0  0  0  0
   21.4311  -17.3216    0.0000 H   0  0  0  0  0  0  0  0  0  0  0  0
   21.9619  -15.5459    0.0000 H   0  0  0  0  0  0  0  0  0  0  0  0
   22.2091  -16.5870    0.0000 H   0  0  0  0  0  0  0  0  0  0  0  0
   10.9663  -13.0307    0.0000 H   0  0  0  0  0  0  0  0  0  0  0  0
   10.4038  -13.9409    0.0000 H   0  0  0  0  0  0  0  0  0  0  0  0
   12.8240  -12.2324    0.0000 H   0  0  0  0  0  0  0  0  0  0  0  0
   11.6263  -14.9687    0.0000 H   0  0  0  0  0  0  0  0  0  0  0  0
    8.6578  -15.2996    0.0000 H   0  0  0  0  0  0  0  0  0  0  0  0
    6.8870  -12.8942    0.0000 H   0  0  0  0  0  0  0  0  0  0  0  0
    8.0847  -10.1579    0.0000 H   0  0  0  0  0  0  0  0  0  0  0  0
   12.4215  -16.7781    0.0000 H   0  0  0  0  0  0  0  0  0  0  0  0
   11.0366  -19.0191    0.0000 H   0  0  0  0  0  0  0  0  0  0  0  0
    8.4033  -18.9402    0.0000 H   0  0  0  0  0  0  0  0  0  0  0  0
    7.1552  -16.6202    0.0000 H   0  0  0  0  0  0  0  0  0  0  0  0
    8.5401  -14.3792    0.0000 H   0  0  0  0  0  0  0  0  0  0  0  0
  1 15  1  0  0  0  0
  1 28  1  0  0  0  0
  1 41  1  0  0  0  0
  2  3  1  0  0  0  0
  2 29  1  0  0  0  0
  2 42  1  0  0  0  0
  2 43  1  0  0  0  0
  3  4  1  0  0  0  0
  3 44  1  0  0  0  0
  4  7  1  0  0  0  0
  4 11  1  0  0  0  0
  4 45  1  0  0  0  0
  5  6  1  0  0  0  0
  5  7  2  0  0  0  0
  5 46  1  0  0  0  0
  6  8  2  0  0  0  0
  6 47  1  0  0  0  0
  7  9  1  0  0  0  0
  8 10  1  0  0  0  0
  8 15  1  0  0  0  0
  9 10  2  0  0  0  0
  9 48  1  0  0  0  0
 10 49  1  0  0  0  0
 11 12  1  0  0  0  0
 11 13  1  0  0  0  0
 11 14  2  0  0  0  0
 12 22  1  0  0  0  0
 13 20  1  0  0  0  0
 15 16  1  0  0  0  0
 15 50  1  0  0  0  0
 16 17  1  0  0  0  0
 16 18  1  0  0  0  0
 16 19  2  0  0  0  0
 17 26  1  0  0  0  0
 18 24  1  0  0  0  0
 20 21  1  0  0  0  0
 20 51  1  0  0  0  0
 20 52  1  0  0  0  0
 21 53  1  0  0  0  0
 21 54  1  0  0  0  0
 21 55  1  0  0  0  0
 22 23  1  0  0  0  0
 22 56  1  0  0  0  0
 22 57  1  0  0  0  0
 23 58  1  0  0  0  0
 23 59  1  0  0  0  0
 23 60  1  0  0  0  0
 24 25  1  0  0  0  0
 24 61  1  0  0  0  0
 24 62  1  0  0  0  0
 25 63  1  0  0  0  0
 25 64  1  0  0  0  0
 25 65  1  0  0  0  0
 26 27  1  0  0  0  0
 26 66  1  0  0  0  0
 26 67  1  0  0  0  0
 27 68  1  0  0  0  0
 27 69  1  0  0  0  0
 27 70  1  0  0  0  0
 28 35  1  0  0  0  0
 28 71  1  0  0  0  0
 28 72  1  0  0  0  0
 29 30  2  0  0  0  0
 29 34  1  0  0  0  0
 30 31  1  0  0  0  0
 30 73  1  0  0  0  0
 31 32  2  0  0  0  0
 31 74  1  0  0  0  0
 32 33  1  0  0  0  0
 32 75  1  0  0  0  0
 33 34  2  0  0  0  0
 33 76  1  0  0  0  0
 34 77  1  0  0  0  0
 35 36  2  0  0  0  0
 35 40  1  0  0  0  0
 36 37  1  0  0  0  0
 36 78  1  0  0  0  0
 37 38  2  0  0  0  0
 37 79  1  0  0  0  0
 38 39  1  0  0  0  0
 38 80  1  0  0  0  0
 39 40  2  0  0  0  0
 39 81  1  0  0  0  0
 40 82  1  0  0  0  0
M  END
> <NMREDATA_VERSION>
1.1

> <NMREDATA_LEVEL>
0

> <NMREDATA_SOLVENT>
CDCl3

> <NMREDATA_FORMULA>
C30H42N2O6P2

> <NMREDATA_SMILES>
CCOP(=O)(C(c1ccc(cc1)C(P(=O)(OCC)OCC)NCc1ccccc1)NCc1ccccc1)OCC

> <NMREDATA_ASSIGNMENT>
P11, 24.05, 11
P16, 24.05, 16

> <NMREDATA_1D_31P>
24.05, L=P11
24.05, L=P16

$$$$
