
 OpenBabel08102311393D

 68 72  0  0  0  0  0  0  0  0999 V2000
   17.8329  -15.3591    0.0000 C   0  0  0  0  0  0  0  0  0  0  0  0
   17.8329  -16.6891    0.0000 C   0  0  0  0  0  0  0  0  0  0  0  0
   16.6810  -14.6941    0.0000 P   0  0  3  0  0  0  0  0  0  0  0  0
   16.6810  -17.3541    0.0000 P   0  0  3  0  0  0  0  0  0  0  0  0
   15.5292  -15.3591    0.0000 C   0  0  0  0  0  0  0  0  0  0  0  0
   15.5292  -16.6891    0.0000 C   0  0  0  0  0  0  0  0  0  0  0  0
   19.0978  -14.9482    0.0000 C   0  0  0  0  0  0  0  0  0  0  0  0
   19.8795  -16.0241    0.0000 N   0  0  0  0  0  0  0  0  0  0  0  0
   19.0980  -17.1001    0.0000 C   0  0  0  0  0  0  0  0  0  0  0  0
   14.2644  -14.9482    0.0000 C   0  0  0  0  0  0  0  0  0  0  0  0
   13.4827  -16.0241    0.0000 N   0  0  0  0  0  0  0  0  0  0  0  0
   14.2642  -17.1001    0.0000 C   0  0  0  0  0  0  0  0  0  0  0  0
   21.2095  -16.0240    0.0000 C   0  0  0  0  0  0  0  0  0  0  0  0
   21.8744  -14.8722    0.0000 C   0  0  0  0  0  0  0  0  0  0  0  0
   21.8746  -17.1758    0.0000 C   0  0  0  0  0  0  0  0  0  0  0  0
   23.2045  -14.8722    0.0000 C   0  0  0  0  0  0  0  0  0  0  0  0
   23.2045  -17.1758    0.0000 C   0  0  0  0  0  0  0  0  0  0  0  0
   23.8695  -16.0239    0.0000 C   0  0  0  0  0  0  0  0  0  0  0  0
   12.1527  -16.0240    0.0000 C   0  0  0  0  0  0  0  0  0  0  0  0
   11.4876  -17.1758    0.0000 C   0  0  0  0  0  0  0  0  0  0  0  0
   11.4877  -14.8722    0.0000 C   0  0  0  0  0  0  0  0  0  0  0  0
   10.1576  -17.1756    0.0000 C   0  0  0  0  0  0  0  0  0  0  0  0
   10.1578  -14.8721    0.0000 C   0  0  0  0  0  0  0  0  0  0  0  0
    9.4927  -16.0238    0.0000 C   0  0  0  0  0  0  0  0  0  0  0  0
    8.1627  -16.0237    0.0000 C   0  0  0  0  0  0  0  0  0  0  0  0
   25.1995  -16.0239    0.0000 C   0  0  0  0  0  0  0  0  0  0  0  0
   16.3286  -18.6360    0.0000 S   0  0  0  0  0  0  0  0  0  0  0  0
   17.5304  -18.2835    0.0000 O   0  0  0  0  0  0  0  0  0  0  0  0
   15.8318  -13.6205    0.0000 S   0  0  0  0  0  0  0  0  0  0  0  0
   17.3221  -13.7166    0.0000 O   0  0  0  0  0  0  0  0  0  0  0  0
   19.5088  -13.6833    0.0000 C   0  0  0  0  0  0  0  0  0  0  0  0
   19.5090  -18.3650    0.0000 C   0  0  0  0  0  0  0  0  0  0  0  0
   13.8534  -13.6832    0.0000 C   0  0  0  0  0  0  0  0  0  0  0  0
   13.8531  -18.3650    0.0000 C   0  0  0  0  0  0  0  0  0  0  0  0
   17.4342  -19.4372    0.0000 C   0  0  0  0  0  0  0  0  0  0  0  0
   17.0817  -12.2745    0.0000 C   0  0  0  0  0  0  0  0  0  0  0  0
   21.3584  -13.9785    0.0000 H   0  0  0  0  0  0  0  0  0  0  0  0
   21.3586  -18.0696    0.0000 H   0  0  0  0  0  0  0  0  0  0  0  0
   23.7205  -13.9785    0.0000 H   0  0  0  0  0  0  0  0  0  0  0  0
   23.7205  -18.0695    0.0000 H   0  0  0  0  0  0  0  0  0  0  0  0
   12.0035  -18.0696    0.0000 H   0  0  0  0  0  0  0  0  0  0  0  0
   12.0037  -13.9785    0.0000 H   0  0  0  0  0  0  0  0  0  0  0  0
    9.6415  -18.0693    0.0000 H   0  0  0  0  0  0  0  0  0  0  0  0
    9.6419  -13.9783    0.0000 H   0  0  0  0  0  0  0  0  0  0  0  0
    7.8060  -17.0325    0.0000 H   0  0  0  0  0  0  0  0  0  0  0  0
    7.8061  -15.5193   -0.8737 H   0  0  0  0  0  0  0  0  0  0  0  0
    7.8061  -15.5193    0.8736 H   0  0  0  0  0  0  0  0  0  0  0  0
   25.5562  -15.0151    0.0000 H   0  0  0  0  0  0  0  0  0  0  0  0
   25.5562  -16.5283   -0.8737 H   0  0  0  0  0  0  0  0  0  0  0  0
   25.5562  -16.5283    0.8736 H   0  0  0  0  0  0  0  0  0  0  0  0
   18.6596  -13.0323    0.0000 H   0  0  0  0  0  0  0  0  0  0  0  0
   20.0987  -13.5000   -0.8737 H   0  0  0  0  0  0  0  0  0  0  0  0
   20.0987  -13.5000    0.8736 H   0  0  0  0  0  0  0  0  0  0  0  0
   18.6598  -19.0160    0.0000 H   0  0  0  0  0  0  0  0  0  0  0  0
   20.0989  -18.5483    0.8737 H   0  0  0  0  0  0  0  0  0  0  0  0
   20.0989  -18.5483   -0.8736 H   0  0  0  0  0  0  0  0  0  0  0  0
   14.7026  -13.0323    0.0000 H   0  0  0  0  0  0  0  0  0  0  0  0
   13.2635  -13.4998    0.8737 H   0  0  0  0  0  0  0  0  0  0  0  0
   13.2635  -13.4998   -0.8736 H   0  0  0  0  0  0  0  0  0  0  0  0
   14.7023  -19.0160    0.0000 H   0  0  0  0  0  0  0  0  0  0  0  0
   13.2632  -18.5483   -0.8737 H   0  0  0  0  0  0  0  0  0  0  0  0
   13.2632  -18.5483    0.8736 H   0  0  0  0  0  0  0  0  0  0  0  0
   18.4099  -19.8765    0.0000 H   0  0  0  0  0  0  0  0  0  0  0  0
   16.9019  -19.7507   -0.8737 H   0  0  0  0  0  0  0  0  0  0  0  0
   16.9019  -19.7507    0.8736 H   0  0  0  0  0  0  0  0  0  0  0  0
   18.0181  -11.7568    0.0000 H   0  0  0  0  0  0  0  0  0  0  0  0
   16.5255  -12.0056    0.8737 H   0  0  0  0  0  0  0  0  0  0  0  0
   16.5255  -12.0056   -0.8736 H   0  0  0  0  0  0  0  0  0  0  0  0
  1  3  1  0  0  0  0
  1  7  2  0  0  0  0
  1  2  1  0  0  0  0
  2  4  1  0  0  0  0
  2  9  2  0  0  0  0
  3  5  1  0  0  0  0
  3 29  2  0  0  0  0
  3 30  1  0  0  0  0
  4  6  1  0  0  0  0
  4 27  2  0  0  0  0
  4 28  1  0  0  0  0
  5 10  2  0  0  0  0
  5  6  1  0  0  0  0
  6 12  2  0  0  0  0
  7  8  1  0  0  0  0
  7 31  1  0  0  0  0
  8  9  1  0  0  0  0
  8 13  1  0  0  0  0
  9 32  1  0  0  0  0
 10 11  1  0  0  0  0
 10 33  1  0  0  0  0
 11 12  1  0  0  0  0
 11 19  1  0  0  0  0
 12 34  1  0  0  0  0
 13 14  1  0  0  0  0
 13 15  2  0  0  0  0
 14 16  2  0  0  0  0
 14 37  1  0  0  0  0
 15 17  1  0  0  0  0
 15 38  1  0  0  0  0
 16 18  1  0  0  0  0
 16 39  1  0  0  0  0
 17 18  2  0  0  0  0
 17 40  1  0  0  0  0
 18 26  1  0  0  0  0
 19 20  1  0  0  0  0
 19 21  2  0  0  0  0
 20 22  2  0  0  0  0
 20 41  1  0  0  0  0
 21 23  1  0  0  0  0
 21 42  1  0  0  0  0
 22 24  1  0  0  0  0
 22 43  1  0  0  0  0
 23 24  2  0  0  0  0
 23 44  1  0  0  0  0
 24 25  1  0  0  0  0
 25 45  1  0  0  0  0
 25 46  1  0  0  0  0
 25 47  1  0  0  0  0
 26 48  1  0  0  0  0
 26 49  1  0  0  0  0
 26 50  1  0  0  0  0
 28 35  1  0  0  0  0
 30 36  1  0  0  0  0
 31 51  1  0  0  0  0
 31 52  1  0  0  0  0
 31 53  1  0  0  0  0
 32 54  1  0  0  0  0
 32 55  1  0  0  0  0
 32 56  1  0  0  0  0
 33 57  1  0  0  0  0
 33 58  1  0  0  0  0
 33 59  1  0  0  0  0
 34 60  1  0  0  0  0
 34 61  1  0  0  0  0
 34 62  1  0  0  0  0
 35 63  1  0  0  0  0
 35 64  1  0  0  0  0
 35 65  1  0  0  0  0
 36 66  1  0  0  0  0
 36 67  1  0  0  0  0
 36 68  1  0  0  0  0
M  END
> <NMREDATA_VERSION>
1.1

> <NMREDATA_LEVEL>
0

> <NMREDATA_SOLVENT>
CHCl3

> <NMREDATA_FORMULA>
C28H32N2O2P2S2

> <NMREDATA_SMILES>
COP1(=S)c2c(C)n(c(c2P(=S)(c2c1c(C)n(c2C)c1ccc(cc1)C)OC)C)c1ccc(cc1)C

> <NMREDATA_ASSIGNMENT>
P3, 55.70, 3
P4, 55.70, 4

> <NMREDATA_1D_31P>
55.70, L=P3
55.70, L=P4

$$$$
