
 OpenBabel08102311393D

105110  0  0  0  0  0  0  0  0999 V2000
   13.2496  -11.1503    0.0000 C   0  0  0  0  0  0  0  0  0  0  0  0
   14.3262  -10.3695    0.0000 C   0  0  0  0  0  0  0  0  0  0  0  0
   13.6595  -12.4156    0.0000 C   0  0  0  0  0  0  0  0  0  0  0  0
   15.4015  -11.1522    0.0000 C   0  0  0  0  0  0  0  0  0  0  0  0
   14.9896  -12.4168    0.0000 C   0  0  0  0  0  0  0  0  0  0  0  0
   11.9489  -10.8727    0.0000 C   0  0  0  0  0  0  0  0  0  0  0  0
   11.0581  -11.8604    0.0000 C   0  0  0  0  0  0  0  0  0  0  0  0
   12.7687  -13.4032    0.0000 C   0  0  0  0  0  0  0  0  0  0  0  0
   11.4681  -13.1256    0.0000 C   0  0  0  0  0  0  0  0  0  0  0  0
   11.7296  -14.7582    0.0000 O   0  0  0  0  0  0  0  0  0  0  0  0
   12.6892  -17.2499    0.0000 C   0  0  0  0  0  0  0  0  0  0  0  0
   12.6892  -18.5799    0.0000 C   0  0  0  0  0  0  0  0  0  0  0  0
   11.5373  -16.5849    0.0000 C   0  0  0  0  0  0  0  0  0  0  0  0
   11.5373  -19.2449    0.0000 C   0  0  0  0  0  0  0  0  0  0  0  0
   10.3855  -17.2499    0.0000 C   0  0  0  0  0  0  0  0  0  0  0  0
   10.3855  -18.5799    0.0000 C   0  0  0  0  0  0  0  0  0  0  0  0
   11.5373  -20.5749    0.0000 N   0  3  0  0  0  0  0  0  0  0  0  0
   10.3854  -21.2399    0.0000 O   0  5  0  0  0  0  0  0  0  0  0  0
   12.6890  -21.2400    0.0000 O   0  0  0  0  0  0  0  0  0  0  0  0
    9.7574  -11.5828    0.0000 P   0  0  0  0  0  0  0  0  0  0  0  0
    8.4567  -11.3053    0.0000 O   0  0  0  0  0  0  0  0  0  0  0  0
    9.4798  -12.8835    0.0000 O   0  0  0  0  0  0  0  0  0  0  0  0
   10.0350  -10.2821    0.0000 O   0  0  0  0  0  0  0  0  0  0  0  0
    7.9480   -9.0857    0.0000 C   0  0  0  0  0  0  0  0  0  0  0  0
    7.9439   -7.7557    0.0000 C   0  0  0  0  0  0  0  0  0  0  0  0
    6.8102  -13.2519    0.0000 C   0  0  0  0  0  0  0  0  0  0  0  0
    5.9940  -12.2018    0.0000 C   0  0  0  0  0  0  0  0  0  0  0  0
   13.2519   -8.7011    0.0000 C   0  0  0  0  0  0  0  0  0  0  0  0
   14.4377   -7.7396    0.0000 C   0  0  0  0  0  0  0  0  0  0  0  0
   17.5372  -10.9005    0.0816 C   0  0  0  0  0  0  0  0  0  0  0  0
   16.3784  -10.2500    0.0269 C   0  0  0  0  0  0  0  0  0  0  0  0
   17.2765  -12.2047    0.0885 C   0  0  0  0  0  0  0  0  0  0  0  0
   15.9564  -12.3603    0.0381 C   0  0  0  0  0  0  0  0  0  0  0  0
   18.7961  -10.4738    0.1260 C   0  0  0  0  0  0  0  0  0  0  0  0
   19.7943  -11.3513    0.1773 C   0  0  0  0  0  0  0  0  0  0  0  0
   18.2746  -13.0821    0.1398 C   0  0  0  0  0  0  0  0  0  0  0  0
   19.5335  -12.6554    0.1842 C   0  0  0  0  0  0  0  0  0  0  0  0
   19.4624  -14.3072    0.2032 O   0  0  0  0  0  0  0  0  0  0  0  0
   18.7978  -16.8933    0.2110 C   0  0  0  0  0  0  0  0  0  0  0  0
   18.9514  -18.2142    0.2346 C   0  0  0  0  0  0  0  0  0  0  0  0
   19.8643  -16.0991    0.2429 C   0  0  0  0  0  0  0  0  0  0  0  0
   20.1715  -18.7409    0.2901 C   0  0  0  0  0  0  0  0  0  0  0  0
   21.0843  -16.6258    0.2984 C   0  0  0  0  0  0  0  0  0  0  0  0
   21.2379  -17.9467    0.3220 C   0  0  0  0  0  0  0  0  0  0  0  0
   20.3252  -20.0618    0.3137 N   0  3  0  0  0  0  0  0  0  0  0  0
   21.5452  -20.5885    0.3692 O   0  5  0  0  0  0  0  0  0  0  0  0
   19.2588  -20.8560    0.2818 O   0  0  0  0  0  0  0  0  0  0  0  0
   21.0532  -10.9246    0.2217 P   0  0  0  0  0  0  0  0  0  0  0  0
   22.3121  -10.4979    0.2661 O   0  0  0  0  0  0  0  0  0  0  0  0
   21.4789  -12.1842    0.2553 O   0  0  0  0  0  0  0  0  0  0  0  0
   20.6274   -9.6651    0.1881 O   0  0  0  0  0  0  0  0  0  0  0  0
   22.5607   -8.2345    0.2461 C   0  0  0  0  0  0  0  0  0  0  0  0
   22.4111   -6.9131    0.2226 C   0  0  0  0  0  0  0  0  0  0  0  0
   24.1711  -12.2401    0.3631 C   0  0  0  0  0  0  0  0  0  0  0  0
   24.8599  -11.1025    0.3755 C   0  0  0  0  0  0  0  0  0  0  0  0
   17.2520   -8.4683    0.0381 C   0  0  0  0  0  0  0  0  0  0  0  0
   17.0359   -6.7829   -0.0688 C   0  0  0  0  0  0  0  0  0  0  0  0
   15.3523  -12.9169   -0.8737 H   0  0  0  0  0  0  0  0  0  0  0  0
   15.3610  -12.9288    0.8631 H   0  0  0  0  0  0  0  0  0  0  0  0
   11.6308   -9.8909    0.0000 H   0  0  0  0  0  0  0  0  0  0  0  0
   13.0868  -14.3850    0.0000 H   0  0  0  0  0  0  0  0  0  0  0  0
   13.5829  -16.7339    0.0000 H   0  0  0  0  0  0  0  0  0  0  0  0
   13.5829  -19.0959    0.0000 H   0  0  0  0  0  0  0  0  0  0  0  0
    9.4918  -16.7339    0.0000 H   0  0  0  0  0  0  0  0  0  0  0  0
    9.4918  -19.0959    0.0000 H   0  0  0  0  0  0  0  0  0  0  0  0
    7.4140   -9.3962    0.8737 H   0  0  0  0  0  0  0  0  0  0  0  0
    7.5228   -9.3329   -0.9502 H   0  0  0  0  0  0  0  0  0  0  0  0
    8.3555   -7.3978    0.9205 H   0  0  0  0  0  0  0  0  0  0  0  0
    6.9393   -7.4021   -0.1029 H   0  0  0  0  0  0  0  0  0  0  0  0
    8.5337   -7.3972   -0.8176 H   0  0  0  0  0  0  0  0  0  0  0  0
    6.5774  -13.8241    0.8737 H   0  0  0  0  0  0  0  0  0  0  0  0
    6.6248  -13.7075   -0.9502 H   0  0  0  0  0  0  0  0  0  0  0  0
    6.1009  -11.6669    0.9205 H   0  0  0  0  0  0  0  0  0  0  0  0
    4.9828  -12.5361   -0.1029 H   0  0  0  0  0  0  0  0  0  0  0  0
    6.2416  -11.5576   -0.8177 H   0  0  0  0  0  0  0  0  0  0  0  0
   12.2106   -8.9474    0.0000 H   0  0  0  0  0  0  0  0  0  0  0  0
   13.4829   -8.1281   -0.8737 H   0  0  0  0  0  0  0  0  0  0  0  0
   13.4829   -8.1281    0.8736 H   0  0  0  0  0  0  0  0  0  0  0  0
   15.4607   -7.4260    0.0000 H   0  0  0  0  0  0  0  0  0  0  0  0
   13.9489   -7.3619    0.8737 H   0  0  0  0  0  0  0  0  0  0  0  0
   13.9489   -7.3619   -0.8736 H   0  0  0  0  0  0  0  0  0  0  0  0
   15.6195  -12.8875    0.9061 H   0  0  0  0  0  0  0  0  0  0  0  0
   15.6812  -12.9233   -0.8292 H   0  0  0  0  0  0  0  0  0  0  0  0
   18.9984   -9.4618    0.1206 H   0  0  0  0  0  0  0  0  0  0  0  0
   18.0723  -14.0941    0.1452 H   0  0  0  0  0  0  0  0  0  0  0  0
   17.8512  -16.4846    0.1679 H   0  0  0  0  0  0  0  0  0  0  0  0
   18.1240  -18.8304    0.2099 H   0  0  0  0  0  0  0  0  0  0  0  0
   21.9117  -16.0096    0.3232 H   0  0  0  0  0  0  0  0  0  0  0  0
   22.1845  -18.3554    0.3651 H   0  0  0  0  0  0  0  0  0  0  0  0
   23.1614   -8.4925   -0.6010 H   0  0  0  0  0  0  0  0  0  0  0  0
   22.9735   -8.4181    1.2160 H   0  0  0  0  0  0  0  0  0  0  0  0
   21.9979   -6.6176   -0.7191 H   0  0  0  0  0  0  0  0  0  0  0  0
   23.3633   -6.4439    0.3573 H   0  0  0  0  0  0  0  0  0  0  0  0
   21.7518   -6.6147    1.0108 H   0  0  0  0  0  0  0  0  0  0  0  0
   24.5030  -12.7929   -0.4908 H   0  0  0  0  0  0  0  0  0  0  0  0
   24.3700  -12.6585    1.3276 H   0  0  0  0  0  0  0  0  0  0  0  0
   24.7286  -10.5959   -0.5578 H   0  0  0  0  0  0  0  0  0  0  0  0
   25.8981  -11.3157    0.5226 H   0  0  0  0  0  0  0  0  0  0  0  0
   24.5072  -10.4807    1.1716 H   0  0  0  0  0  0  0  0  0  0  0  0
   18.3077   -8.5895    0.1630 H   0  0  0  0  0  0  0  0  0  0  0  0
   16.8619   -7.8849    0.8458 H   0  0  0  0  0  0  0  0  0  0  0  0
   17.0574   -7.9698   -0.8885 H   0  0  0  0  0  0  0  0  0  0  0  0
   16.1176   -6.2492   -0.1984 H   0  0  0  0  0  0  0  0  0  0  0  0
   17.6924   -6.5668   -0.8856 H   0  0  0  0  0  0  0  0  0  0  0  0
   17.4970   -6.4819    0.8486 H   0  0  0  0  0  0  0  0  0  0  0  0
  1  2  1  0  0  0  0
  1  6  1  0  0  0  0
  1  3  2  0  0  0  0
  2  4  1  0  0  0  0
  2 28  1  0  0  0  0
  2 29  1  0  0  0  0
  3  5  1  0  0  0  0
  3  8  1  0  0  0  0
  4  5  1  0  0  0  0
  4 33  1  0  0  0  0
  5 58  1  0  0  0  0
  5 59  1  0  0  0  0
  6  7  2  0  0  0  0
  6 60  1  0  0  0  0
  7  9  1  0  0  0  0
  7 20  1  0  0  0  0
  8  9  2  0  0  0  0
  8 61  1  0  0  0  0
  9 10  1  0  0  0  0
 10 13  1  0  0  0  0
 11 12  1  0  0  0  0
 11 13  2  0  0  0  0
 11 62  1  0  0  0  0
 12 14  2  0  0  0  0
 12 63  1  0  0  0  0
 13 15  1  0  0  0  0
 14 16  1  0  0  0  0
 14 17  1  0  0  0  0
 15 16  2  0  0  0  0
 15 64  1  0  0  0  0
 16 65  1  0  0  0  0
 17 18  1  0  0  0  0
 17 19  2  0  0  0  0
 20 21  2  0  0  0  0
 20 22  1  0  0  0  0
 20 23  1  0  0  0  0
 22 26  1  0  0  0  0
 23 24  1  0  0  0  0
 24 25  1  0  0  0  0
 24 66  1  0  0  0  0
 24 67  1  0  0  0  0
 25 68  1  0  0  0  0
 25 69  1  0  0  0  0
 25 70  1  0  0  0  0
 26 27  1  0  0  0  0
 26 71  1  0  0  0  0
 26 72  1  0  0  0  0
 27 73  1  0  0  0  0
 27 74  1  0  0  0  0
 27 75  1  0  0  0  0
 28 76  1  0  0  0  0
 28 77  1  0  0  0  0
 28 78  1  0  0  0  0
 29 79  1  0  0  0  0
 29 80  1  0  0  0  0
 29 81  1  0  0  0  0
 30 31  1  0  0  0  0
 30 34  1  0  0  0  0
 30 32  2  0  0  0  0
 31  4  1  0  0  0  0
 31 56  1  0  0  0  0
 31 57  1  0  0  0  0
 32 33  1  0  0  0  0
 32 36  1  0  0  0  0
 33 82  1  0  0  0  0
 33 83  1  0  0  0  0
 34 35  2  0  0  0  0
 34 84  1  0  0  0  0
 35 37  1  0  0  0  0
 35 48  1  0  0  0  0
 36 37  2  0  0  0  0
 36 85  1  0  0  0  0
 37 38  1  0  0  0  0
 38 41  1  0  0  0  0
 39 40  1  0  0  0  0
 39 41  2  0  0  0  0
 39 86  1  0  0  0  0
 40 42  2  0  0  0  0
 40 87  1  0  0  0  0
 41 43  1  0  0  0  0
 42 44  1  0  0  0  0
 42 45  1  0  0  0  0
 43 44  2  0  0  0  0
 43 88  1  0  0  0  0
 44 89  1  0  0  0  0
 45 46  1  0  0  0  0
 45 47  2  0  0  0  0
 48 49  2  0  0  0  0
 48 50  1  0  0  0  0
 48 51  1  0  0  0  0
 50 54  1  0  0  0  0
 51 52  1  0  0  0  0
 52 53  1  0  0  0  0
 52 90  1  0  0  0  0
 52 91  1  0  0  0  0
 53 92  1  0  0  0  0
 53 93  1  0  0  0  0
 53 94  1  0  0  0  0
 54 55  1  0  0  0  0
 54 95  1  0  0  0  0
 54 96  1  0  0  0  0
 55 97  1  0  0  0  0
 55 98  1  0  0  0  0
 55 99  1  0  0  0  0
 56100  1  0  0  0  0
 56101  1  0  0  0  0
 56102  1  0  0  0  0
 57103  1  0  0  0  0
 57104  1  0  0  0  0
 57105  1  0  0  0  0
M  END
> <NMREDATA_VERSION>
1.1

> <NMREDATA_LEVEL>
0

> <NMREDATA_SOLVENT>
CDCl3

> <NMREDATA_FORMULA>
C41H48N2O12P2

> <NMREDATA_SMILES>
CCOP(=O)(c1cc2c(cc1Oc1ccc(cc1)[N+](=O)[O-])CC1(C2(C)C)Cc2c(C1(C)C)cc(c(c2)Oc1ccc(cc1)[N+](=O)[O-])P(=O)(OCC)OCC)OCC

> <NMREDATA_ASSIGNMENT>
P20, 15.34, 20
P48, 15.34, 48

> <NMREDATA_1D_31P>
15.34, L=P20
15.34, L=P48

$$$$
