
 OpenBabel08102311392D

168172  0  0  0  0  0  0  0  0999 V2000
   11.5657  -17.7556    0.0000 C   0  0  0  0  0  0  0  0  0  0  0  0
   12.8928  -17.6687    0.0000 C   0  0  0  0  0  0  0  0  0  0  0  0
   10.9774  -18.9485    0.0000 C   0  0  0  0  0  0  0  0  0  0  0  0
   13.6317  -18.7747    0.0000 C   0  0  0  0  0  0  0  0  0  0  0  0
   11.7162  -20.0544    0.0000 C   0  0  0  0  0  0  0  0  0  0  0  0
   13.0434  -19.9675    0.0000 C   0  0  0  0  0  0  0  0  0  0  0  0
   14.9589  -18.6878    0.0000 C   0  0  0  0  0  0  0  0  0  0  0  0
   11.1279  -21.2472    0.0000 C   0  0  0  0  0  0  0  0  0  0  0  0
   10.8268  -16.6497    0.0000 C   0  0  0  0  0  0  0  0  0  0  0  0
    9.6502  -19.0355    0.0000 C   0  0  0  0  0  0  0  0  0  0  0  0
    8.9113  -17.9296    0.0000 P   0  0  0  0  0  0  0  0  0  0  0  0
    8.1725  -16.8237    0.0000 O   0  0  0  0  0  0  0  0  0  0  0  0
    7.8055  -18.6685    0.0000 O   0  0  0  0  0  0  0  0  0  0  0  0
   10.0172  -17.1907    0.0000 O   0  0  0  0  0  0  0  0  0  0  0  0
    6.0232  -18.8233    0.0000 C   0  0  0  0  0  0  0  0  0  0  0  0
    5.2610  -17.7334    0.0000 C   0  0  0  0  0  0  0  0  0  0  0  0
    9.2060  -15.1944    0.0000 C   0  0  0  0  0  0  0  0  0  0  0  0
   10.0227  -14.1447    0.0000 C   0  0  0  0  0  0  0  0  0  0  0  0
   13.6205  -15.5274    0.0000 C   0  0  0  0  0  0  0  0  0  0  0  0
   20.3808  -13.1638    0.0000 C   0  0  0  0  0  0  0  0  0  0  0  0
   20.3808  -14.4938    0.0000 C   0  0  0  0  0  0  0  0  0  0  0  0
   19.2289  -12.4988    0.0000 C   0  0  0  0  0  0  0  0  0  0  0  0
   19.2289  -15.1588    0.0000 C   0  0  0  0  0  0  0  0  0  0  0  0
   18.0771  -13.1638    0.0000 C   0  0  0  0  0  0  0  0  0  0  0  0
   18.0771  -14.4938    0.0000 C   0  0  0  0  0  0  0  0  0  0  0  0
   19.2288  -16.4888    0.0000 C   0  0  0  0  0  0  0  0  0  0  0  0
   16.9253  -12.4988    0.0000 C   0  0  0  0  0  0  0  0  0  0  0  0
   21.5326  -12.4988    0.0000 C   0  0  0  0  0  0  0  0  0  0  0  0
   19.2288  -11.1688    0.0000 C   0  0  0  0  0  0  0  0  0  0  0  0
   20.3806  -10.5038    0.0000 P   0  0  0  0  0  0  0  0  0  0  0  0
   21.5324   -9.8388    0.0000 O   0  0  0  0  0  0  0  0  0  0  0  0
   19.7156   -9.3520    0.0000 O   0  0  0  0  0  0  0  0  0  0  0  0
   21.0457  -11.6556    0.0000 O   0  0  0  0  0  0  0  0  0  0  0  0
   19.6776   -7.5634    0.0000 C   0  0  0  0  0  0  0  0  0  0  0  0
   20.8150   -6.8741    0.0000 C   0  0  0  0  0  0  0  0  0  0  0  0
   23.0907  -10.9765    0.0000 C   0  0  0  0  0  0  0  0  0  0  0  0
   24.0848  -11.8601    0.0000 C   0  0  0  0  0  0  0  0  0  0  0  0
   23.4753  -14.3896    0.0000 C   0  0  0  0  0  0  0  0  0  0  0  0
   28.1543  -17.6645    0.0000 C   0  0  0  0  0  0  0  0  0  0  0  0
   26.9287  -18.1811    0.0000 C   0  0  0  0  0  0  0  0  0  0  0  0
   28.3197  -16.3447    0.0000 C   0  0  0  0  0  0  0  0  0  0  0  0
   25.8685  -17.3779    0.0000 C   0  0  0  0  0  0  0  0  0  0  0  0
   27.2595  -15.5416    0.0000 C   0  0  0  0  0  0  0  0  0  0  0  0
   26.0340  -16.0583    0.0000 C   0  0  0  0  0  0  0  0  0  0  0  0
   24.6429  -17.8944    0.0000 C   0  0  0  0  0  0  0  0  0  0  0  0
   27.4249  -14.2220    0.0000 C   0  0  0  0  0  0  0  0  0  0  0  0
   29.2145  -18.4675    0.0000 C   0  0  0  0  0  0  0  0  0  0  0  0
   29.5453  -15.8281    0.0000 C   0  0  0  0  0  0  0  0  0  0  0  0
   30.6054  -16.6312    0.0000 P   0  0  0  0  0  0  0  0  0  0  0  0
   31.6656  -17.4342    0.0000 O   0  0  0  0  0  0  0  0  0  0  0  0
   31.4085  -15.5710    0.0000 O   0  0  0  0  0  0  0  0  0  0  0  0
   29.8024  -17.6913    0.0000 O   0  0  0  0  0  0  0  0  0  0  0  0
   33.0419  -14.8412    0.0000 C   0  0  0  0  0  0  0  0  0  0  0  0
   34.1189  -15.6216    0.0000 C   0  0  0  0  0  0  0  0  0  0  0  0
   31.2224  -19.3121    0.0000 C   0  0  0  0  0  0  0  0  0  0  0  0
   30.7944  -20.5713    0.0000 C   0  0  0  0  0  0  0  0  0  0  0  0
   26.5039  -21.1999    0.0000 C   0  0  0  0  0  0  0  0  0  0  0  0
   20.6591  -24.5271    0.0000 C   0  0  0  0  0  0  0  0  0  0  0  0
   20.4326  -23.2166    0.0000 C   0  0  0  0  0  0  0  0  0  0  0  0
   21.9075  -24.9862    0.0000 C   0  0  0  0  0  0  0  0  0  0  0  0
   21.4544  -22.3651    0.0000 C   0  0  0  0  0  0  0  0  0  0  0  0
   22.9292  -24.1347    0.0000 C   0  0  0  0  0  0  0  0  0  0  0  0
   22.7026  -22.8241    0.0000 C   0  0  0  0  0  0  0  0  0  0  0  0
   21.2278  -21.0545    0.0000 C   0  0  0  0  0  0  0  0  0  0  0  0
   24.1774  -24.5937    0.0000 C   0  0  0  0  0  0  0  0  0  0  0  0
   19.6375  -25.3786    0.0000 C   0  0  0  0  0  0  0  0  0  0  0  0
   22.1342  -26.2967    0.0000 C   0  0  0  0  0  0  0  0  0  0  0  0
   21.1125  -27.1482    0.0000 P   0  0  0  0  0  0  0  0  0  0  0  0
   20.0908  -27.9997    0.0000 O   0  0  0  0  0  0  0  0  0  0  0  0
   21.9640  -28.1699    0.0000 O   0  0  0  0  0  0  0  0  0  0  0  0
   20.2609  -26.1266    0.0000 O   0  0  0  0  0  0  0  0  0  0  0  0
   22.3061  -29.9259    0.0000 C   0  0  0  0  0  0  0  0  0  0  0  0
   21.3028  -30.7989    0.0000 C   0  0  0  0  0  0  0  0  0  0  0  0
   18.3615  -27.1441    0.0000 C   0  0  0  0  0  0  0  0  0  0  0  0
   17.2314  -26.4428    0.0000 C   0  0  0  0  0  0  0  0  0  0  0  0
   14.3896  -22.3376    0.0000 C   0  0  0  0  0  0  0  0  0  0  0  0
   15.5533  -19.5775    0.0000 H   0  0  0  0  0  0  0  0  0  0  0  0
   15.4322  -17.7282    0.0000 H   0  0  0  0  0  0  0  0  0  0  0  0
   16.0266  -18.6179    0.0000 H   0  0  0  0  0  0  0  0  0  0  0  0
   10.0602  -21.3171    0.0000 H   0  0  0  0  0  0  0  0  0  0  0  0
   11.7223  -22.1369    0.0000 H   0  0  0  0  0  0  0  0  0  0  0  0
   10.6546  -22.2068    0.0000 H   0  0  0  0  0  0  0  0  0  0  0  0
   11.3001  -15.6901    0.0000 H   0  0  0  0  0  0  0  0  0  0  0  0
    9.7591  -16.7197    0.0000 H   0  0  0  0  0  0  0  0  0  0  0  0
   10.2324  -15.7600    0.0000 H   0  0  0  0  0  0  0  0  0  0  0  0
    9.1769  -19.9952    0.0000 H   0  0  0  0  0  0  0  0  0  0  0  0
    8.5825  -19.1055    0.0000 H   0  0  0  0  0  0  0  0  0  0  0  0
    5.5704  -19.7928    0.0000 H   0  0  0  0  0  0  0  0  0  0  0  0
    4.9572  -18.9159    0.0000 H   0  0  0  0  0  0  0  0  0  0  0  0
    5.7138  -16.7639    0.0000 H   0  0  0  0  0  0  0  0  0  0  0  0
    4.1950  -17.8260    0.0000 H   0  0  0  0  0  0  0  0  0  0  0  0
    4.6478  -16.8565    0.0000 H   0  0  0  0  0  0  0  0  0  0  0  0
    8.1461  -15.0476    0.0000 H   0  0  0  0  0  0  0  0  0  0  0  0
    8.8032  -14.2031    0.0000 H   0  0  0  0  0  0  0  0  0  0  0  0
   11.0826  -14.2915    0.0000 H   0  0  0  0  0  0  0  0  0  0  0  0
    9.6199  -13.1534    0.0000 H   0  0  0  0  0  0  0  0  0  0  0  0
   10.6798  -13.3002    0.0000 H   0  0  0  0  0  0  0  0  0  0  0  0
   12.9025  -14.7340    0.0000 H   0  0  0  0  0  0  0  0  0  0  0  0
   13.9405  -14.5064    0.0000 H   0  0  0  0  0  0  0  0  0  0  0  0
   18.3021  -17.0237    0.0000 H   0  0  0  0  0  0  0  0  0  0  0  0
   20.1554  -17.0239    0.0000 H   0  0  0  0  0  0  0  0  0  0  0  0
   19.2287  -17.5588    0.0000 H   0  0  0  0  0  0  0  0  0  0  0  0
   16.9253  -11.4288    0.0000 H   0  0  0  0  0  0  0  0  0  0  0  0
   15.9987  -13.0338    0.0000 H   0  0  0  0  0  0  0  0  0  0  0  0
   15.9987  -11.9638    0.0000 H   0  0  0  0  0  0  0  0  0  0  0  0
   22.4592  -13.0338    0.0000 H   0  0  0  0  0  0  0  0  0  0  0  0
   21.5326  -11.4288    0.0000 H   0  0  0  0  0  0  0  0  0  0  0  0
   22.4592  -11.9638    0.0000 H   0  0  0  0  0  0  0  0  0  0  0  0
   18.3021  -10.6338    0.0000 H   0  0  0  0  0  0  0  0  0  0  0  0
   19.2288  -10.0988    0.0000 H   0  0  0  0  0  0  0  0  0  0  0  0
   18.7398   -7.0482    0.0000 H   0  0  0  0  0  0  0  0  0  0  0  0
   19.6549   -6.4936    0.0000 H   0  0  0  0  0  0  0  0  0  0  0  0
   21.7528   -7.3893    0.0000 H   0  0  0  0  0  0  0  0  0  0  0  0
   20.7923   -5.8043    0.0000 H   0  0  0  0  0  0  0  0  0  0  0  0
   21.7301   -6.3195    0.0000 H   0  0  0  0  0  0  0  0  0  0  0  0
   23.3064   -9.9285    0.0000 H   0  0  0  0  0  0  0  0  0  0  0  0
   24.1062  -10.6393    0.0000 H   0  0  0  0  0  0  0  0  0  0  0  0
   23.8691  -12.9081    0.0000 H   0  0  0  0  0  0  0  0  0  0  0  0
   25.1003  -11.5229    0.0000 H   0  0  0  0  0  0  0  0  0  0  0  0
   24.8845  -12.5709    0.0000 H   0  0  0  0  0  0  0  0  0  0  0  0
   23.7629  -13.3590    0.0000 H   0  0  0  0  0  0  0  0  0  0  0  0
   24.4766  -14.0123    0.0000 H   0  0  0  0  0  0  0  0  0  0  0  0
   23.7900  -17.2483    0.0000 H   0  0  0  0  0  0  0  0  0  0  0  0
   24.5098  -18.9561    0.0000 H   0  0  0  0  0  0  0  0  0  0  0  0
   23.6569  -18.3099    0.0000 H   0  0  0  0  0  0  0  0  0  0  0  0
   28.4109  -13.8064    0.0000 H   0  0  0  0  0  0  0  0  0  0  0  0
   26.5720  -13.5759    0.0000 H   0  0  0  0  0  0  0  0  0  0  0  0
   27.5580  -13.1603    0.0000 H   0  0  0  0  0  0  0  0  0  0  0  0
   29.0815  -19.5292    0.0000 H   0  0  0  0  0  0  0  0  0  0  0  0
   30.2005  -18.0518    0.0000 H   0  0  0  0  0  0  0  0  0  0  0  0
   30.0675  -19.1135    0.0000 H   0  0  0  0  0  0  0  0  0  0  0  0
   29.6784  -14.7664    0.0000 H   0  0  0  0  0  0  0  0  0  0  0  0
   30.5313  -15.4125    0.0000 H   0  0  0  0  0  0  0  0  0  0  0  0
   33.1524  -13.7769    0.0000 H   0  0  0  0  0  0  0  0  0  0  0  0
   34.0188  -14.4047    0.0000 H   0  0  0  0  0  0  0  0  0  0  0  0
   34.0084  -16.6859    0.0000 H   0  0  0  0  0  0  0  0  0  0  0  0
   35.0958  -15.1852    0.0000 H   0  0  0  0  0  0  0  0  0  0  0  0
   34.9853  -16.2494    0.0000 H   0  0  0  0  0  0  0  0  0  0  0  0
   32.2719  -19.1038    0.0000 H   0  0  0  0  0  0  0  0  0  0  0  0
   31.9276  -20.1169    0.0000 H   0  0  0  0  0  0  0  0  0  0  0  0
   29.7449  -20.7796    0.0000 H   0  0  0  0  0  0  0  0  0  0  0  0
   31.4996  -21.3760    0.0000 H   0  0  0  0  0  0  0  0  0  0  0  0
   30.4501  -21.5844    0.0000 H   0  0  0  0  0  0  0  0  0  0  0  0
   27.3535  -21.8503    0.0000 H   0  0  0  0  0  0  0  0  0  0  0  0
   26.3707  -22.2616    0.0000 H   0  0  0  0  0  0  0  0  0  0  0  0
   22.0498  -20.3694    0.0000 H   0  0  0  0  0  0  0  0  0  0  0  0
   20.2236  -20.6852    0.0000 H   0  0  0  0  0  0  0  0  0  0  0  0
   21.0455  -20.0001    0.0000 H   0  0  0  0  0  0  0  0  0  0  0  0
   24.3597  -25.6481    0.0000 H   0  0  0  0  0  0  0  0  0  0  0  0
   24.9993  -23.9086    0.0000 H   0  0  0  0  0  0  0  0  0  0  0  0
   25.1817  -24.9630    0.0000 H   0  0  0  0  0  0  0  0  0  0  0  0
   18.6332  -25.0093    0.0000 H   0  0  0  0  0  0  0  0  0  0  0  0
   19.8198  -26.4330    0.0000 H   0  0  0  0  0  0  0  0  0  0  0  0
   18.8156  -26.0637    0.0000 H   0  0  0  0  0  0  0  0  0  0  0  0
   23.1385  -26.6660    0.0000 H   0  0  0  0  0  0  0  0  0  0  0  0
   22.3165  -27.3511    0.0000 H   0  0  0  0  0  0  0  0  0  0  0  0
   23.3180  -30.2738    0.0000 H   0  0  0  0  0  0  0  0  0  0  0  0
   22.5108  -30.9761    0.0000 H   0  0  0  0  0  0  0  0  0  0  0  0
   20.2909  -30.4510    0.0000 H   0  0  0  0  0  0  0  0  0  0  0  0
   21.5075  -31.8491    0.0000 H   0  0  0  0  0  0  0  0  0  0  0  0
   20.4956  -31.5013    0.0000 H   0  0  0  0  0  0  0  0  0  0  0  0
   18.3275  -28.2136    0.0000 H   0  0  0  0  0  0  0  0  0  0  0  0
   17.4183  -27.6494    0.0000 H   0  0  0  0  0  0  0  0  0  0  0  0
   17.2654  -25.3733    0.0000 H   0  0  0  0  0  0  0  0  0  0  0  0
   16.2882  -26.9481    0.0000 H   0  0  0  0  0  0  0  0  0  0  0  0
   16.3222  -25.8786    0.0000 H   0  0  0  0  0  0  0  0  0  0  0  0
   13.7860  -23.2211    0.0000 H   0  0  0  0  0  0  0  0  0  0  0  0
   13.3205  -22.2933    0.0000 H   0  0  0  0  0  0  0  0  0  0  0  0
  1  2  1  0  0  0  0
  1  3  2  0  0  0  0
  1  9  1  0  0  0  0
  2  4  2  0  0  0  0
  2 19  1  0  0  0  0
  3  5  1  0  0  0  0
  3 10  1  0  0  0  0
  4  6  1  0  0  0  0
  4  7  1  0  0  0  0
  5  6  2  0  0  0  0
  5  8  1  0  0  0  0
  7 77  1  0  0  0  0
  7 78  1  0  0  0  0
  7 79  1  0  0  0  0
  8 80  1  0  0  0  0
  8 81  1  0  0  0  0
  8 82  1  0  0  0  0
  9 83  1  0  0  0  0
  9 84  1  0  0  0  0
  9 85  1  0  0  0  0
 10 11  1  0  0  0  0
 10 86  1  0  0  0  0
 10 87  1  0  0  0  0
 11 12  2  0  0  0  0
 11 13  1  0  0  0  0
 11 14  1  0  0  0  0
 13 15  1  0  0  0  0
 14 17  1  0  0  0  0
 15 16  1  0  0  0  0
 15 88  1  0  0  0  0
 15 89  1  0  0  0  0
 16 90  1  0  0  0  0
 16 91  1  0  0  0  0
 16 92  1  0  0  0  0
 17 18  1  0  0  0  0
 17 93  1  0  0  0  0
 17 94  1  0  0  0  0
 18 95  1  0  0  0  0
 18 96  1  0  0  0  0
 18 97  1  0  0  0  0
 19 25  1  0  0  0  0
 19 98  1  0  0  0  0
 19 99  1  0  0  0  0
 20 21  1  0  0  0  0
 20 22  2  0  0  0  0
 20 28  1  0  0  0  0
 21 23  2  0  0  0  0
 21 38  1  0  0  0  0
 22 24  1  0  0  0  0
 22 29  1  0  0  0  0
 23 25  1  0  0  0  0
 23 26  1  0  0  0  0
 24 25  2  0  0  0  0
 24 27  1  0  0  0  0
 26100  1  0  0  0  0
 26101  1  0  0  0  0
 26102  1  0  0  0  0
 27103  1  0  0  0  0
 27104  1  0  0  0  0
 27105  1  0  0  0  0
 28106  1  0  0  0  0
 28107  1  0  0  0  0
 28108  1  0  0  0  0
 29 30  1  0  0  0  0
 29109  1  0  0  0  0
 29110  1  0  0  0  0
 30 31  2  0  0  0  0
 30 32  1  0  0  0  0
 30 33  1  0  0  0  0
 32 34  1  0  0  0  0
 33 36  1  0  0  0  0
 34 35  1  0  0  0  0
 34111  1  0  0  0  0
 34112  1  0  0  0  0
 35113  1  0  0  0  0
 35114  1  0  0  0  0
 35115  1  0  0  0  0
 36 37  1  0  0  0  0
 36116  1  0  0  0  0
 36117  1  0  0  0  0
 37118  1  0  0  0  0
 37119  1  0  0  0  0
 37120  1  0  0  0  0
 38 44  1  0  0  0  0
 38121  1  0  0  0  0
 38122  1  0  0  0  0
 39 40  1  0  0  0  0
 39 41  2  0  0  0  0
 39 47  1  0  0  0  0
 40 42  2  0  0  0  0
 40 57  1  0  0  0  0
 41 43  1  0  0  0  0
 41 48  1  0  0  0  0
 42 44  1  0  0  0  0
 42 45  1  0  0  0  0
 43 44  2  0  0  0  0
 43 46  1  0  0  0  0
 45123  1  0  0  0  0
 45124  1  0  0  0  0
 45125  1  0  0  0  0
 46126  1  0  0  0  0
 46127  1  0  0  0  0
 46128  1  0  0  0  0
 47129  1  0  0  0  0
 47130  1  0  0  0  0
 47131  1  0  0  0  0
 48 49  1  0  0  0  0
 48132  1  0  0  0  0
 48133  1  0  0  0  0
 49 50  2  0  0  0  0
 49 51  1  0  0  0  0
 49 52  1  0  0  0  0
 51 53  1  0  0  0  0
 52 55  1  0  0  0  0
 53 54  1  0  0  0  0
 53134  1  0  0  0  0
 53135  1  0  0  0  0
 54136  1  0  0  0  0
 54137  1  0  0  0  0
 54138  1  0  0  0  0
 55 56  1  0  0  0  0
 55139  1  0  0  0  0
 55140  1  0  0  0  0
 56141  1  0  0  0  0
 56142  1  0  0  0  0
 56143  1  0  0  0  0
 57 63  1  0  0  0  0
 57144  1  0  0  0  0
 57145  1  0  0  0  0
 58 59  1  0  0  0  0
 58 60  2  0  0  0  0
 58 66  1  0  0  0  0
 59 61  2  0  0  0  0
 59 76  1  0  0  0  0
 60 62  1  0  0  0  0
 60 67  1  0  0  0  0
 61 63  1  0  0  0  0
 61 64  1  0  0  0  0
 62 63  2  0  0  0  0
 62 65  1  0  0  0  0
 64146  1  0  0  0  0
 64147  1  0  0  0  0
 64148  1  0  0  0  0
 65149  1  0  0  0  0
 65150  1  0  0  0  0
 65151  1  0  0  0  0
 66152  1  0  0  0  0
 66153  1  0  0  0  0
 66154  1  0  0  0  0
 67 68  1  0  0  0  0
 67155  1  0  0  0  0
 67156  1  0  0  0  0
 68 69  2  0  0  0  0
 68 70  1  0  0  0  0
 68 71  1  0  0  0  0
 70 72  1  0  0  0  0
 71 74  1  0  0  0  0
 72 73  1  0  0  0  0
 72157  1  0  0  0  0
 72158  1  0  0  0  0
 73159  1  0  0  0  0
 73160  1  0  0  0  0
 73161  1  0  0  0  0
 74 75  1  0  0  0  0
 74162  1  0  0  0  0
 74163  1  0  0  0  0
 75164  1  0  0  0  0
 75165  1  0  0  0  0
 75166  1  0  0  0  0
 76  6  1  0  0  0  0
 76167  1  0  0  0  0
 76168  1  0  0  0  0
M  END
> <NMREDATA_VERSION>
1.1

> <NMREDATA_LEVEL>
0

> <NMREDATA_SOLVENT>
CDCl3

> <NMREDATA_FORMULA>
C60H92O12P4

> <NMREDATA_SMILES>
CCOP(=O)(Cc1c(C)c2Cc3c(C)c(Cc4c(c(Cc5c(c(Cc(c1C)c2C)c(C)c(c5C)CP(=O)(OCC)OCC)C)c(c(c4C)CP(=O)(OCC)OCC)C)C)c(c(c3C)CP(=O)(OCC)OCC)C)OCC

> <NMREDATA_ASSIGNMENT>
P11, 27.79, 11
P30, 27.79, 30
P49, 27.79, 49
P68, 27.79, 68

> <NMREDATA_1D_31P>
27.79, L=P11
27.79, L=P30
27.79, L=P49
27.79, L=P68

$$$$
