
 OpenBabel08102311392D

188198  0  0  0  0  0  0  0  0999 V2000
   17.4182   -4.9194    0.0000 P   0  0  3  0  0  0  0  0  0  0  0  0
    9.4702   -6.4417    0.0000 O   0  0  0  0  0  0  0  0  0  0  0  0
   18.5399  -42.0152    0.0000 P   0  0  3  0  0  0  0  0  0  0  0  0
   19.3090  -36.3427    0.0000 O   0  0  0  0  0  0  0  0  0  0  0  0
   18.6822  -13.1157    0.0000 C   0  0  0  0  0  0  0  0  0  0  0  0
   18.6822  -14.4457    0.0000 C   0  0  0  0  0  0  0  0  0  0  0  0
   17.5303  -12.4507    0.0000 C   0  0  0  0  0  0  0  0  0  0  0  0
   17.5303  -15.1107    0.0000 C   0  0  0  0  0  0  0  0  0  0  0  0
   16.3785  -13.1157    0.0000 C   0  0  0  0  0  0  0  0  0  0  0  0
   16.3785  -14.4457    0.0000 C   0  0  0  0  0  0  0  0  0  0  0  0
   15.2267  -12.4507    0.0000 C   0  0  0  0  0  0  0  0  0  0  0  0
   19.8340  -12.4507    0.0000 C   0  0  0  0  0  0  0  0  0  0  0  0
   17.4182  -17.0336    0.0000 C   0  0  0  0  0  0  0  0  0  0  0  0
   16.2296  -17.6305    0.0000 C   0  0  0  0  0  0  0  0  0  0  0  0
   18.5294  -17.7645    0.0000 C   0  0  0  0  0  0  0  0  0  0  0  0
   17.4182  -19.6776    0.0000 C   0  0  0  0  0  0  0  0  0  0  0  0
   18.5701  -20.3426    0.0000 C   0  0  0  0  0  0  0  0  0  0  0  0
   18.5701  -21.6726    0.0000 C   0  0  0  0  0  0  0  0  0  0  0  0
   17.4182  -22.3376    0.0000 C   0  0  0  0  0  0  0  0  0  0  0  0
   16.2664  -20.3426    0.0000 C   0  0  0  0  0  0  0  0  0  0  0  0
   16.2664  -21.6726    0.0000 C   0  0  0  0  0  0  0  0  0  0  0  0
   17.7868  -24.9816    0.0000 C   0  0  0  0  0  0  0  0  0  0  0  0
   16.7378  -25.7992    0.0000 C   0  0  0  0  0  0  0  0  0  0  0  0
   19.0193  -25.4812    0.0000 C   0  0  0  0  0  0  0  0  0  0  0  0
   18.1713  -28.0101    0.0000 C   0  0  0  0  0  0  0  0  0  0  0  0
   19.3232  -28.6751    0.0000 C   0  0  0  0  0  0  0  0  0  0  0  0
   19.3232  -30.0051    0.0000 C   0  0  0  0  0  0  0  0  0  0  0  0
   18.1713  -30.6701    0.0000 C   0  0  0  0  0  0  0  0  0  0  0  0
   17.0196  -28.6751    0.0000 C   0  0  0  0  0  0  0  0  0  0  0  0
   17.0196  -30.0051    0.0000 C   0  0  0  0  0  0  0  0  0  0  0  0
   15.8677  -30.6701    0.0000 C   0  0  0  0  0  0  0  0  0  0  0  0
   20.4750  -30.6702    0.0000 C   0  0  0  0  0  0  0  0  0  0  0  0
    9.0857  -36.3427    0.0000 O   0  0  0  0  0  0  0  0  0  0  0  0
    9.8209  -13.0677    0.0000 C   0  0  0  0  0  0  0  0  0  0  0  0
    9.8209  -14.3977    0.0000 C   0  0  0  0  0  0  0  0  0  0  0  0
    8.6690  -12.4027    0.0000 C   0  0  0  0  0  0  0  0  0  0  0  0
    8.6690  -15.0627    0.0000 C   0  0  0  0  0  0  0  0  0  0  0  0
    7.5172  -13.0677    0.0000 C   0  0  0  0  0  0  0  0  0  0  0  0
    7.5172  -14.3977    0.0000 C   0  0  0  0  0  0  0  0  0  0  0  0
    6.3654  -12.4027    0.0000 C   0  0  0  0  0  0  0  0  0  0  0  0
   10.9727  -12.4026    0.0000 C   0  0  0  0  0  0  0  0  0  0  0  0
    8.5569  -16.9855    0.0000 C   0  0  0  0  0  0  0  0  0  0  0  0
    7.3683  -17.5824    0.0000 C   0  0  0  0  0  0  0  0  0  0  0  0
    9.6680  -17.7165    0.0000 C   0  0  0  0  0  0  0  0  0  0  0  0
    8.5569  -19.6295    0.0000 C   0  0  0  0  0  0  0  0  0  0  0  0
    9.7088  -20.2945    0.0000 C   0  0  0  0  0  0  0  0  0  0  0  0
    9.7088  -21.6245    0.0000 C   0  0  0  0  0  0  0  0  0  0  0  0
    8.5569  -22.2895    0.0000 C   0  0  0  0  0  0  0  0  0  0  0  0
    7.4051  -20.2945    0.0000 C   0  0  0  0  0  0  0  0  0  0  0  0
    7.4051  -21.6245    0.0000 C   0  0  0  0  0  0  0  0  0  0  0  0
    8.9254  -24.9335    0.0000 C   0  0  0  0  0  0  0  0  0  0  0  0
    7.8764  -25.7512    0.0000 C   0  0  0  0  0  0  0  0  0  0  0  0
   10.1580  -25.4331    0.0000 C   0  0  0  0  0  0  0  0  0  0  0  0
    9.3100  -27.9621    0.0000 C   0  0  0  0  0  0  0  0  0  0  0  0
   10.4619  -28.6271    0.0000 C   0  0  0  0  0  0  0  0  0  0  0  0
   10.4619  -29.9571    0.0000 C   0  0  0  0  0  0  0  0  0  0  0  0
    9.3100  -30.6221    0.0000 C   0  0  0  0  0  0  0  0  0  0  0  0
    8.1582  -28.6271    0.0000 C   0  0  0  0  0  0  0  0  0  0  0  0
    8.1582  -29.9571    0.0000 C   0  0  0  0  0  0  0  0  0  0  0  0
    7.0064  -30.6220    0.0000 C   0  0  0  0  0  0  0  0  0  0  0  0
   11.6137  -30.6221    0.0000 C   0  0  0  0  0  0  0  0  0  0  0  0
   25.7347  -36.3427    0.0000 O   0  0  0  0  0  0  0  0  0  0  0  0
   27.7358  -12.9555    0.0000 C   0  0  0  0  0  0  0  0  0  0  0  0
   27.7358  -14.2855    0.0000 C   0  0  0  0  0  0  0  0  0  0  0  0
   26.5839  -12.2905    0.0000 C   0  0  0  0  0  0  0  0  0  0  0  0
   26.5839  -14.9505    0.0000 C   0  0  0  0  0  0  0  0  0  0  0  0
   25.4321  -12.9555    0.0000 C   0  0  0  0  0  0  0  0  0  0  0  0
   25.4321  -14.2855    0.0000 C   0  0  0  0  0  0  0  0  0  0  0  0
   24.2803  -12.2905    0.0000 C   0  0  0  0  0  0  0  0  0  0  0  0
   28.8876  -12.2905    0.0000 C   0  0  0  0  0  0  0  0  0  0  0  0
   26.4718  -16.8734    0.0000 C   0  0  0  0  0  0  0  0  0  0  0  0
   25.2832  -17.4702    0.0000 C   0  0  0  0  0  0  0  0  0  0  0  0
   27.5830  -17.6043    0.0000 C   0  0  0  0  0  0  0  0  0  0  0  0
   26.4718  -19.5174    0.0000 C   0  0  0  0  0  0  0  0  0  0  0  0
   27.6237  -20.1824    0.0000 C   0  0  0  0  0  0  0  0  0  0  0  0
   27.6237  -21.5124    0.0000 C   0  0  0  0  0  0  0  0  0  0  0  0
   26.4718  -22.1774    0.0000 C   0  0  0  0  0  0  0  0  0  0  0  0
   25.3200  -20.1824    0.0000 C   0  0  0  0  0  0  0  0  0  0  0  0
   25.3200  -21.5124    0.0000 C   0  0  0  0  0  0  0  0  0  0  0  0
   26.8404  -24.8213    0.0000 C   0  0  0  0  0  0  0  0  0  0  0  0
   25.7914  -25.6390    0.0000 C   0  0  0  0  0  0  0  0  0  0  0  0
   28.0730  -25.3210    0.0000 C   0  0  0  0  0  0  0  0  0  0  0  0
   27.2249  -27.8499    0.0000 C   0  0  0  0  0  0  0  0  0  0  0  0
   28.3769  -28.5149    0.0000 C   0  0  0  0  0  0  0  0  0  0  0  0
   28.3769  -29.8449    0.0000 C   0  0  0  0  0  0  0  0  0  0  0  0
   27.2249  -30.5099    0.0000 C   0  0  0  0  0  0  0  0  0  0  0  0
   26.0732  -28.5149    0.0000 C   0  0  0  0  0  0  0  0  0  0  0  0
   26.0732  -29.8449    0.0000 C   0  0  0  0  0  0  0  0  0  0  0  0
   24.9213  -30.5099    0.0000 C   0  0  0  0  0  0  0  0  0  0  0  0
   29.5287  -30.5099    0.0000 C   0  0  0  0  0  0  0  0  0  0  0  0
   17.7868   -8.7011    0.0000 O   0  0  0  0  0  0  0  0  0  0  0  0
   26.8724   -6.4417    0.0000 O   0  0  0  0  0  0  0  0  0  0  0  0
   19.5759  -14.9617    0.0000 H   0  0  0  0  0  0  0  0  0  0  0  0
   15.4848  -14.9617    0.0000 H   0  0  0  0  0  0  0  0  0  0  0  0
   15.2267  -11.3807    0.0000 H   0  0  0  0  0  0  0  0  0  0  0  0
   14.3001  -12.9857    0.0000 H   0  0  0  0  0  0  0  0  0  0  0  0
   14.3001  -11.9157    0.0000 H   0  0  0  0  0  0  0  0  0  0  0  0
   20.7606  -12.9857    0.0000 H   0  0  0  0  0  0  0  0  0  0  0  0
   19.8340  -11.3807    0.0000 H   0  0  0  0  0  0  0  0  0  0  0  0
   20.7606  -11.9157    0.0000 H   0  0  0  0  0  0  0  0  0  0  0  0
   15.3356  -17.0425    0.0000 H   0  0  0  0  0  0  0  0  0  0  0  0
   16.1674  -18.6987    0.0000 H   0  0  0  0  0  0  0  0  0  0  0  0
   15.2734  -18.1107    0.0000 H   0  0  0  0  0  0  0  0  0  0  0  0
   18.4671  -18.8327    0.0000 H   0  0  0  0  0  0  0  0  0  0  0  0
   19.4856  -17.2843    0.0000 H   0  0  0  0  0  0  0  0  0  0  0  0
   19.4234  -18.3525    0.0000 H   0  0  0  0  0  0  0  0  0  0  0  0
   19.4638  -19.8266    0.0000 H   0  0  0  0  0  0  0  0  0  0  0  0
   19.4638  -22.1886    0.0000 H   0  0  0  0  0  0  0  0  0  0  0  0
   15.3727  -19.8266    0.0000 H   0  0  0  0  0  0  0  0  0  0  0  0
   15.3727  -22.1886    0.0000 H   0  0  0  0  0  0  0  0  0  0  0  0
   15.7462  -25.3972    0.0000 H   0  0  0  0  0  0  0  0  0  0  0  0
   16.8855  -26.8590    0.0000 H   0  0  0  0  0  0  0  0  0  0  0  0
   15.8939  -26.4570    0.0000 H   0  0  0  0  0  0  0  0  0  0  0  0
   19.1670  -26.5410    0.0000 H   0  0  0  0  0  0  0  0  0  0  0  0
   19.8632  -24.8234    0.0000 H   0  0  0  0  0  0  0  0  0  0  0  0
   20.0109  -25.8832    0.0000 H   0  0  0  0  0  0  0  0  0  0  0  0
   20.2169  -28.1591    0.0000 H   0  0  0  0  0  0  0  0  0  0  0  0
   16.1259  -28.1591    0.0000 H   0  0  0  0  0  0  0  0  0  0  0  0
   14.9411  -30.1351    0.0000 H   0  0  0  0  0  0  0  0  0  0  0  0
   15.8677  -31.7401    0.0000 H   0  0  0  0  0  0  0  0  0  0  0  0
   14.9410  -31.2051    0.0000 H   0  0  0  0  0  0  0  0  0  0  0  0
   20.4749  -31.7402    0.0000 H   0  0  0  0  0  0  0  0  0  0  0  0
   21.4017  -30.1353    0.0000 H   0  0  0  0  0  0  0  0  0  0  0  0
   21.4016  -31.2053    0.0000 H   0  0  0  0  0  0  0  0  0  0  0  0
   10.7146  -14.9137    0.0000 H   0  0  0  0  0  0  0  0  0  0  0  0
    6.6235  -14.9137    0.0000 H   0  0  0  0  0  0  0  0  0  0  0  0
    6.3654  -11.3327    0.0000 H   0  0  0  0  0  0  0  0  0  0  0  0
    5.4388  -12.9377    0.0000 H   0  0  0  0  0  0  0  0  0  0  0  0
    5.4388  -11.8677    0.0000 H   0  0  0  0  0  0  0  0  0  0  0  0
   11.8994  -12.9375    0.0000 H   0  0  0  0  0  0  0  0  0  0  0  0
   10.9726  -11.3326    0.0000 H   0  0  0  0  0  0  0  0  0  0  0  0
   11.8993  -11.8675    0.0000 H   0  0  0  0  0  0  0  0  0  0  0  0
    6.4743  -16.9944    0.0000 H   0  0  0  0  0  0  0  0  0  0  0  0
    7.3061  -18.6506    0.0000 H   0  0  0  0  0  0  0  0  0  0  0  0
    6.4121  -18.0626    0.0000 H   0  0  0  0  0  0  0  0  0  0  0  0
    9.6056  -18.7847    0.0000 H   0  0  0  0  0  0  0  0  0  0  0  0
   10.6243  -17.2364    0.0000 H   0  0  0  0  0  0  0  0  0  0  0  0
   10.5619  -18.3046    0.0000 H   0  0  0  0  0  0  0  0  0  0  0  0
   10.6025  -19.7785    0.0000 H   0  0  0  0  0  0  0  0  0  0  0  0
   10.6025  -22.1405    0.0000 H   0  0  0  0  0  0  0  0  0  0  0  0
    6.5114  -19.7785    0.0000 H   0  0  0  0  0  0  0  0  0  0  0  0
    6.5114  -22.1405    0.0000 H   0  0  0  0  0  0  0  0  0  0  0  0
    6.8848  -25.3493    0.0000 H   0  0  0  0  0  0  0  0  0  0  0  0
    8.0241  -26.8110    0.0000 H   0  0  0  0  0  0  0  0  0  0  0  0
    7.0325  -26.4090    0.0000 H   0  0  0  0  0  0  0  0  0  0  0  0
   10.3057  -26.4929    0.0000 H   0  0  0  0  0  0  0  0  0  0  0  0
   11.0019  -24.7753    0.0000 H   0  0  0  0  0  0  0  0  0  0  0  0
   11.1496  -25.8350    0.0000 H   0  0  0  0  0  0  0  0  0  0  0  0
   11.3556  -28.1111    0.0000 H   0  0  0  0  0  0  0  0  0  0  0  0
    7.2645  -28.1111    0.0000 H   0  0  0  0  0  0  0  0  0  0  0  0
    6.0798  -30.0869    0.0000 H   0  0  0  0  0  0  0  0  0  0  0  0
    7.0063  -31.6920    0.0000 H   0  0  0  0  0  0  0  0  0  0  0  0
    6.0797  -31.1569    0.0000 H   0  0  0  0  0  0  0  0  0  0  0  0
   11.6137  -31.6921    0.0000 H   0  0  0  0  0  0  0  0  0  0  0  0
   12.5403  -30.0871    0.0000 H   0  0  0  0  0  0  0  0  0  0  0  0
   12.5403  -31.1571    0.0000 H   0  0  0  0  0  0  0  0  0  0  0  0
   28.6295  -14.8015    0.0000 H   0  0  0  0  0  0  0  0  0  0  0  0
   24.5384  -14.8015    0.0000 H   0  0  0  0  0  0  0  0  0  0  0  0
   24.2803  -11.2205    0.0000 H   0  0  0  0  0  0  0  0  0  0  0  0
   23.3537  -12.8255    0.0000 H   0  0  0  0  0  0  0  0  0  0  0  0
   23.3537  -11.7555    0.0000 H   0  0  0  0  0  0  0  0  0  0  0  0
   29.8142  -12.8255    0.0000 H   0  0  0  0  0  0  0  0  0  0  0  0
   28.8876  -11.2205    0.0000 H   0  0  0  0  0  0  0  0  0  0  0  0
   29.8142  -11.7555    0.0000 H   0  0  0  0  0  0  0  0  0  0  0  0
   24.3893  -16.8821    0.0000 H   0  0  0  0  0  0  0  0  0  0  0  0
   25.2209  -18.5384    0.0000 H   0  0  0  0  0  0  0  0  0  0  0  0
   24.3270  -17.9503    0.0000 H   0  0  0  0  0  0  0  0  0  0  0  0
   27.5207  -18.6725    0.0000 H   0  0  0  0  0  0  0  0  0  0  0  0
   28.5392  -17.1241    0.0000 H   0  0  0  0  0  0  0  0  0  0  0  0
   28.4770  -18.1923    0.0000 H   0  0  0  0  0  0  0  0  0  0  0  0
   28.5174  -19.6664    0.0000 H   0  0  0  0  0  0  0  0  0  0  0  0
   28.5174  -22.0284    0.0000 H   0  0  0  0  0  0  0  0  0  0  0  0
   24.4263  -19.6664    0.0000 H   0  0  0  0  0  0  0  0  0  0  0  0
   24.4263  -22.0284    0.0000 H   0  0  0  0  0  0  0  0  0  0  0  0
   24.7998  -25.2371    0.0000 H   0  0  0  0  0  0  0  0  0  0  0  0
   25.9391  -26.6988    0.0000 H   0  0  0  0  0  0  0  0  0  0  0  0
   24.9475  -26.2968    0.0000 H   0  0  0  0  0  0  0  0  0  0  0  0
   28.2207  -26.3808    0.0000 H   0  0  0  0  0  0  0  0  0  0  0  0
   28.9170  -24.6632    0.0000 H   0  0  0  0  0  0  0  0  0  0  0  0
   29.0646  -25.7230    0.0000 H   0  0  0  0  0  0  0  0  0  0  0  0
   29.2706  -27.9989    0.0000 H   0  0  0  0  0  0  0  0  0  0  0  0
   25.1795  -27.9989    0.0000 H   0  0  0  0  0  0  0  0  0  0  0  0
   23.9947  -29.9749    0.0000 H   0  0  0  0  0  0  0  0  0  0  0  0
   24.9213  -31.5799    0.0000 H   0  0  0  0  0  0  0  0  0  0  0  0
   23.9946  -31.0449    0.0000 H   0  0  0  0  0  0  0  0  0  0  0  0
   29.5287  -31.5799    0.0000 H   0  0  0  0  0  0  0  0  0  0  0  0
   30.4553  -29.9749    0.0000 H   0  0  0  0  0  0  0  0  0  0  0  0
   30.4553  -31.0449    0.0000 H   0  0  0  0  0  0  0  0  0  0  0  0
  1  2  1  0  0  0  0
  1 91  1  0  0  0  0
  1 92  1  0  0  0  0
  2 36  1  0  0  0  0
  3  4  1  0  0  0  0
  3 33  1  0  0  0  0
  3 62  1  0  0  0  0
  4 28  1  0  0  0  0
  5  6  1  0  0  0  0
  5  7  2  0  0  0  0
  5 12  1  0  0  0  0
  6  8  2  0  0  0  0
  6 93  1  0  0  0  0
  7  9  1  0  0  0  0
  8 10  1  0  0  0  0
  8 13  1  0  0  0  0
  9 10  2  0  0  0  0
  9 11  1  0  0  0  0
 10 94  1  0  0  0  0
 11 95  1  0  0  0  0
 11 96  1  0  0  0  0
 11 97  1  0  0  0  0
 12 98  1  0  0  0  0
 12 99  1  0  0  0  0
 12100  1  0  0  0  0
 13 14  1  0  0  0  0
 13 15  1  0  0  0  0
 13 16  1  0  0  0  0
 14101  1  0  0  0  0
 14102  1  0  0  0  0
 14103  1  0  0  0  0
 15104  1  0  0  0  0
 15105  1  0  0  0  0
 15106  1  0  0  0  0
 16 20  1  0  0  0  0
 17 18  1  0  0  0  0
 17 16  2  0  0  0  0
 17107  1  0  0  0  0
 18 19  2  0  0  0  0
 18108  1  0  0  0  0
 19 21  1  0  0  0  0
 19 22  1  0  0  0  0
 20 21  2  0  0  0  0
 20109  1  0  0  0  0
 21110  1  0  0  0  0
 22 23  1  0  0  0  0
 22 24  1  0  0  0  0
 22 25  1  0  0  0  0
 23111  1  0  0  0  0
 23112  1  0  0  0  0
 23113  1  0  0  0  0
 24114  1  0  0  0  0
 24115  1  0  0  0  0
 24116  1  0  0  0  0
 25 29  1  0  0  0  0
 26 27  1  0  0  0  0
 26 25  2  0  0  0  0
 26117  1  0  0  0  0
 27 28  2  0  0  0  0
 27 32  1  0  0  0  0
 28 30  1  0  0  0  0
 29 30  2  0  0  0  0
 29118  1  0  0  0  0
 30 31  1  0  0  0  0
 31119  1  0  0  0  0
 31120  1  0  0  0  0
 31121  1  0  0  0  0
 32122  1  0  0  0  0
 32123  1  0  0  0  0
 32124  1  0  0  0  0
 33 57  1  0  0  0  0
 34 35  1  0  0  0  0
 34 36  2  0  0  0  0
 34 41  1  0  0  0  0
 35 37  2  0  0  0  0
 35125  1  0  0  0  0
 36 38  1  0  0  0  0
 37 39  1  0  0  0  0
 37 42  1  0  0  0  0
 38 39  2  0  0  0  0
 38 40  1  0  0  0  0
 39126  1  0  0  0  0
 40127  1  0  0  0  0
 40128  1  0  0  0  0
 40129  1  0  0  0  0
 41130  1  0  0  0  0
 41131  1  0  0  0  0
 41132  1  0  0  0  0
 42 43  1  0  0  0  0
 42 44  1  0  0  0  0
 42 45  1  0  0  0  0
 43133  1  0  0  0  0
 43134  1  0  0  0  0
 43135  1  0  0  0  0
 44136  1  0  0  0  0
 44137  1  0  0  0  0
 44138  1  0  0  0  0
 45 49  1  0  0  0  0
 46 47  1  0  0  0  0
 46 45  2  0  0  0  0
 46139  1  0  0  0  0
 47 48  2  0  0  0  0
 47140  1  0  0  0  0
 48 50  1  0  0  0  0
 48 51  1  0  0  0  0
 49 50  2  0  0  0  0
 49141  1  0  0  0  0
 50142  1  0  0  0  0
 51 52  1  0  0  0  0
 51 53  1  0  0  0  0
 51 54  1  0  0  0  0
 52143  1  0  0  0  0
 52144  1  0  0  0  0
 52145  1  0  0  0  0
 53146  1  0  0  0  0
 53147  1  0  0  0  0
 53148  1  0  0  0  0
 54 58  1  0  0  0  0
 55 56  1  0  0  0  0
 55 54  2  0  0  0  0
 55149  1  0  0  0  0
 56 57  2  0  0  0  0
 56 61  1  0  0  0  0
 57 59  1  0  0  0  0
 58 59  2  0  0  0  0
 58150  1  0  0  0  0
 59 60  1  0  0  0  0
 60151  1  0  0  0  0
 60152  1  0  0  0  0
 60153  1  0  0  0  0
 61154  1  0  0  0  0
 61155  1  0  0  0  0
 61156  1  0  0  0  0
 62 86  1  0  0  0  0
 63 64  1  0  0  0  0
 63 65  2  0  0  0  0
 63 70  1  0  0  0  0
 64 66  2  0  0  0  0
 64157  1  0  0  0  0
 65 67  1  0  0  0  0
 66 68  1  0  0  0  0
 66 71  1  0  0  0  0
 67 68  2  0  0  0  0
 67 69  1  0  0  0  0
 68158  1  0  0  0  0
 69159  1  0  0  0  0
 69160  1  0  0  0  0
 69161  1  0  0  0  0
 70162  1  0  0  0  0
 70163  1  0  0  0  0
 70164  1  0  0  0  0
 71 72  1  0  0  0  0
 71 73  1  0  0  0  0
 71 74  1  0  0  0  0
 72165  1  0  0  0  0
 72166  1  0  0  0  0
 72167  1  0  0  0  0
 73168  1  0  0  0  0
 73169  1  0  0  0  0
 73170  1  0  0  0  0
 74 78  1  0  0  0  0
 75 76  1  0  0  0  0
 75 74  2  0  0  0  0
 75171  1  0  0  0  0
 76 77  2  0  0  0  0
 76172  1  0  0  0  0
 77 79  1  0  0  0  0
 77 80  1  0  0  0  0
 78 79  2  0  0  0  0
 78173  1  0  0  0  0
 79174  1  0  0  0  0
 80 81  1  0  0  0  0
 80 82  1  0  0  0  0
 80 83  1  0  0  0  0
 81175  1  0  0  0  0
 81176  1  0  0  0  0
 81177  1  0  0  0  0
 82178  1  0  0  0  0
 82179  1  0  0  0  0
 82180  1  0  0  0  0
 83 87  1  0  0  0  0
 84 85  1  0  0  0  0
 84 83  2  0  0  0  0
 84181  1  0  0  0  0
 85 86  2  0  0  0  0
 85 90  1  0  0  0  0
 86 88  1  0  0  0  0
 87 88  2  0  0  0  0
 87182  1  0  0  0  0
 88 89  1  0  0  0  0
 89183  1  0  0  0  0
 89184  1  0  0  0  0
 89185  1  0  0  0  0
 90186  1  0  0  0  0
 90187  1  0  0  0  0
 90188  1  0  0  0  0
 91  7  1  0  0  0  0
 92 65  1  0  0  0  0
M  END
> <NMREDATA_VERSION>
1.1

> <NMREDATA_LEVEL>
0

> <NMREDATA_SOLVENT>
CDCl3

> <NMREDATA_FORMULA>
C84H96O6P2

> <NMREDATA_SMILES>
Cc1cc2cc(c1OP1Oc3c(C)cc(cc3C)C(C)(C)c3ccc(cc3)C(C)(C)c3cc(c(OP(Oc4c(cc(C(c5ccc(C2(C)C)cc5)(C)C)cc4C)C)Oc2c(cc(C(c4ccc(C(c5cc(c(O1)c(C)c5)C)(C)C)cc4)(C)C)cc2C)C)c(c3)C)C)C

> <NMREDATA_ASSIGNMENT>
P1, 129.70, 1
P3, 129.70, 3

> <NMREDATA_1D_31P>
129.70, L=P1
129.70, L=P3

$$$$
