
 OpenBabel08102311392D

 67 71  0  0  0  0  0  0  0  0999 V2000
   14.6781  -16.2805    0.0000 P    0  0  0  0  0  0  0  0  0  0  0  0
   14.4698  -12.7231    0.0000 P    0  0  0  0  0  0  0  0  0  0  0  0
   16.8253  -13.5243    0.0000 C    0  0  1  0  0  0  0  0  0  0  0  0
   16.8253  -15.3190    0.0000 C    0  0  3  0  0  0  0  0  0  0  0  0
   18.1233  -16.2324    0.0000 C    0  0  0  0  0  0  0  0  0  0  0  0
   18.2354  -12.8193    0.0000 C    0  0  0  0  0  0  0  0  0  0  0  0
   13.2680  -11.3130    0.0000 C    0  0  0  0  0  0  0  0  0  0  0  0
   15.5754  -11.6175    0.0000 C    0  0  0  0  0  0  0  0  0  0  0  0
   12.8674  -17.2740    0.0000 C    0  0  0  0  0  0  0  0  0  0  0  0
   15.1268  -17.5784    0.0000 C    0  0  0  0  0  0  0  0  0  0  0  0
   13.5724  -14.5659    0.0000 Pd   0  0  0  0  0  0  0  0  0  0  0  0
   12.1623  -13.8288    0.0000 Cl   0  0  0  0  0  0  0  0  0  0  0  0
   12.4668  -15.1268    0.0000 Cl   0  0  0  0  0  0  0  0  0  0  0  0
   19.5626  -15.5653    0.0000 O    0  0  0  0  0  0  0  0  0  0  0  0
   17.9813  -17.8124    0.0000 O    0  0  0  0  0  0  0  0  0  0  0  0
   16.5420  -18.4795    0.0000 C    0  0  0  0  0  0  0  0  0  0  0  0
   18.3295  -11.2517    0.0000 O    0  0  0  0  0  0  0  0  0  0  0  0
   19.5459  -13.6845    0.0000 O    0  0  0  0  0  0  0  0  0  0  0  0
   19.4518  -15.2521    0.0000 C    0  0  0  0  0  0  0  0  0  0  0  0
   11.4399  -11.6498    0.0000 C    0  0  0  0  0  0  0  0  0  0  0  0
   10.2342  -10.2351    0.0000 C    0  0  0  0  0  0  0  0  0  0  0  0
   10.8565   -8.4836    0.0000 C    0  0  0  0  0  0  0  0  0  0  0  0
   12.6846   -8.1468    0.0000 C    0  0  0  0  0  0  0  0  0  0  0  0
   13.8903   -9.5615    0.0000 C    0  0  0  0  0  0  0  0  0  0  0  0
   15.1690  -10.1006    0.0000 C    0  0  0  0  0  0  0  0  0  0  0  0
   16.2794   -8.9902    0.0000 C    0  0  0  0  0  0  0  0  0  0  0  0
   17.7962   -9.3966    0.0000 C    0  0  0  0  0  0  0  0  0  0  0  0
   18.2027  -10.9135    0.0000 C    0  0  0  0  0  0  0  0  0  0  0  0
   17.0923  -12.0239    0.0000 C    0  0  0  0  0  0  0  0  0  0  0  0
   12.8223  -19.3406    0.0000 C    0  0  0  0  0  0  0  0  0  0  0  0
   11.0101  -20.3349    0.0000 C    0  0  0  0  0  0  0  0  0  0  0  0
    9.2429  -19.2626    0.0000 C    0  0  0  0  0  0  0  0  0  0  0  0
    9.2879  -17.1960    0.0000 C    0  0  0  0  0  0  0  0  0  0  0  0
   11.1001  -16.2017    0.0000 C    0  0  0  0  0  0  0  0  0  0  0  0
   16.4798  -17.8397    0.0000 C    0  0  0  0  0  0  0  0  0  0  0  0
   16.9301  -19.1422    0.0000 C    0  0  0  0  0  0  0  0  0  0  0  0
   16.0272  -20.1833    0.0000 C    0  0  0  0  0  0  0  0  0  0  0  0
   14.6742  -19.9220    0.0000 C    0  0  0  0  0  0  0  0  0  0  0  0
   14.2239  -18.6196    0.0000 C    0  0  0  0  0  0  0  0  0  0  0  0
   16.7527  -12.4568    0.0000 H    0  0  0  0  0  0  0  0  0  0  0  0
   15.9273  -14.7372    0.0000 H    0  0  0  0  0  0  0  0  0  0  0  0
   15.6669  -17.8637    0.0000 H    0  0  0  0  0  0  0  0  0  0  0  0
   16.4463  -19.5452    0.0000 H    0  0  0  0  0  0  0  0  0  0  0  0
   15.5712  -18.9295    0.0000 H    0  0  0  0  0  0  0  0  0  0  0  0
   18.4948  -15.7306    0.0000 H    0  0  0  0  0  0  0  0  0  0  0  0
   20.3447  -15.8417    0.0000 H    0  0  0  0  0  0  0  0  0  0  0  0
   19.3877  -16.3202    0.0000 H    0  0  0  0  0  0  0  0  0  0  0  0
   11.0944  -12.6222    0.0000 H    0  0  0  0  0  0  0  0  0  0  0  0
    9.2193  -10.4221    0.0000 H    0  0  0  0  0  0  0  0  0  0  0  0
   10.1871   -7.6982    0.0000 H    0  0  0  0  0  0  0  0  0  0  0  0
   13.0301   -7.1744    0.0000 H    0  0  0  0  0  0  0  0  0  0  0  0
   14.9052   -9.3745    0.0000 H    0  0  0  0  0  0  0  0  0  0  0  0
   14.1722   -9.8335    0.0000 H    0  0  0  0  0  0  0  0  0  0  0  0
   16.0123   -7.9934    0.0000 H    0  0  0  0  0  0  0  0  0  0  0  0
   18.5259   -8.6668    0.0000 H    0  0  0  0  0  0  0  0  0  0  0  0
   19.1995  -11.1806    0.0000 H    0  0  0  0  0  0  0  0  0  0  0  0
   17.3594  -13.0207    0.0000 H    0  0  0  0  0  0  0  0  0  0  0  0
   13.7046  -19.8760    0.0000 H    0  0  0  0  0  0  0  0  0  0  0  0
   10.9876  -21.3667    0.0000 H    0  0  0  0  0  0  0  0  0  0  0  0
    8.3381  -19.7590    0.0000 H    0  0  0  0  0  0  0  0  0  0  0  0
    8.4056  -16.6607    0.0000 H    0  0  0  0  0  0  0  0  0  0  0  0
   11.1226  -15.1699    0.0000 H    0  0  0  0  0  0  0  0  0  0  0  0
   17.1559  -17.0600    0.0000 H    0  0  0  0  0  0  0  0  0  0  0  0
   17.9434  -19.3379    0.0000 H    0  0  0  0  0  0  0  0  0  0  0  0
   16.3643  -21.1587    0.0000 H    0  0  0  0  0  0  0  0  0  0  0  0
   13.9981  -20.7017    0.0000 H    0  0  0  0  0  0  0  0  0  0  0  0
   13.2106  -18.4239    0.0000 H    0  0  0  0  0  0  0  0  0  0  0  0
  1  4  1  0  0  0  0
  1  9  1  0  0  0  0
  1 10  1  0  0  0  0
  1 11  9  0  0  0  0
  2  3  1  0  0  0  0
  2  7  1  0  0  0  0
  2  8  1  0  0  0  0
  2 11  9  0  0  0  0
  3  4  1  0  0  0  0
  3  6  1  0  0  0  0
  3 40  1  1  0  0  0
  4  5  1  0  0  0  0
  4 41  1  0  0  0  0
  5 14  2  0  0  0  0
  5 15  1  0  0  0  0
  6 17  2  0  0  0  0
  6 18  1  0  0  0  0
  7 20  2  0  0  0  0
  7 24  1  0  0  0  0
  8 25  2  0  0  0  0
  8 29  1  0  0  0  0
  9 30  2  0  0  0  0
  9 34  1  0  0  0  0
 10 35  2  0  0  0  0
 10 39  1  0  0  0  0
 11 12  1  0  0  0  0
 11 13  1  0  0  0  0
 15 16  1  0  0  0  0
 16 42  1  0  0  0  0
 16 43  1  0  0  0  0
 16 44  1  0  0  0  0
 18 19  1  0  0  0  0
 19 45  1  0  0  0  0
 19 46  1  0  0  0  0
 19 47  1  0  0  0  0
 20 21  1  0  0  0  0
 20 48  1  0  0  0  0
 21 22  2  0  0  0  0
 21 49  1  0  0  0  0
 22 23  1  0  0  0  0
 22 50  1  0  0  0  0
 23 24  2  0  0  0  0
 23 51  1  0  0  0  0
 24 52  1  0  0  0  0
 25 26  1  0  0  0  0
 25 53  1  0  0  0  0
 26 27  2  0  0  0  0
 26 54  1  0  0  0  0
 27 28  1  0  0  0  0
 27 55  1  0  0  0  0
 28 29  2  0  0  0  0
 28 56  1  0  0  0  0
 29 57  1  0  0  0  0
 30 31  1  0  0  0  0
 30 58  1  0  0  0  0
 31 32  2  0  0  0  0
 31 59  1  0  0  0  0
 32 33  1  0  0  0  0
 32 60  1  0  0  0  0
 33 34  2  0  0  0  0
 33 61  1  0  0  0  0
 34 62  1  0  0  0  0
 35 36  1  0  0  0  0
 35 63  1  0  0  0  0
 36 37  2  0  0  0  0
 36 64  1  0  0  0  0
 37 38  1  0  0  0  0
 37 65  1  0  0  0  0
 38 39  2  0  0  0  0
 38 66  1  0  0  0  0
 39 67  1  0  0  0  0
M  END
> <NMREDATA_VERSION>
1.1

> <NMREDATA_LEVEL>
0

> <NMREDATA_SOLVENT>
CDCl3

> <NMREDATA_FORMULA>
C30H28Cl2O4P2Pd

> <NMREDATA_SMILES>
COC(=O)C1[C@@H](C(=O)OC)[P]([Pd]([P]1(c1ccccc1)c1ccccc1)(Cl)Cl)(c1ccccc1)c1ccccc1

> <NMREDATA_ASSIGNMENT>
P1, 58.00, 1
P2, 58.00, 2

> <NMREDATA_1D_31P>
58.00, L=P1
58.00, L=P2

$$$$
