
 OpenBabel08102311393D

144152  0  0  0  0  0  0  0  0999 V2000
   15.8962  -14.8380    0.8906 O   0  0  0  0  0  0  0  0  0  0  0  0
   15.9001  -16.0619   -0.1224 P   0  0  2  0  0  0  0  0  0  0  0  0
   14.9182  -16.7601   -0.7259 O   0  0  0  0  0  0  0  0  0  0  0  0
   14.6555  -15.4136    0.3818 C   0  0  2  0  0  0  0  0  0  0  0  0
   13.9581  -14.4168    0.3946 C   0  0  0  0  0  0  0  0  0  0  0  0
   12.7031  -13.8834    0.8658 C   0  0  0  0  0  0  0  0  0  0  0  0
   13.0777  -13.2309    0.8786 C   0  0  0  0  0  0  0  0  0  0  0  0
    7.2230  -13.9734    0.0707 O   0  0  0  0  0  0  0  0  0  0  0  0
    7.5539  -15.5263    0.0163 P   0  0  1  0  0  0  0  0  0  0  0  0
    8.6673  -16.2197   -0.2922 O   0  0  0  0  0  0  0  0  0  0  0  0
    9.6345  -16.3518   -0.5732 C   0  0  0  0  0  0  0  0  0  0  0  0
    9.8913  -15.0515   -0.6849 C   0  0  0  0  0  0  0  0  0  0  0  0
    8.5461  -14.4607   -0.3053 C   0  0  1  0  0  0  0  0  0  0  0  0
    9.3248  -14.2432   -0.5406 C   0  0  0  0  0  0  0  0  0  0  0  0
    9.5282  -13.4302   -0.6229 C   0  0  0  0  0  0  0  0  0  0  0  0
   10.3069  -13.2128   -0.8582 C   0  0  0  0  0  0  0  0  0  0  0  0
   10.3256   -7.7246    0.0567 O   0  0  0  0  0  0  0  0  0  0  0  0
    8.7530   -7.9447    0.0056 P   0  0  1  0  0  0  0  0  0  0  0  0
    7.9817   -9.0359   -0.1675 O   0  0  0  0  0  0  0  0  0  0  0  0
    7.7807  -10.0202   -0.3179 C   0  0  0  0  0  0  0  0  0  0  0  0
    9.0592  -10.3849   -0.3582 C   0  0  0  0  0  0  0  0  0  0  0  0
    9.7448   -9.0474   -0.1490 C   0  0  2  0  0  0  0  0  0  0  0  0
    9.9060   -9.8649   -0.2702 C   0  0  0  0  0  0  0  0  0  0  0  0
   10.7022  -10.1369   -0.3021 C   0  0  0  0  0  0  0  0  0  0  0  0
   10.8634  -10.9544   -0.4233 C   0  0  0  0  0  0  0  0  0  0  0  0
   13.0409   -7.9622    0.0000 C   0  0  0  0  0  0  0  0  0  0  0  0
   13.0409   -8.8042    0.0000 C   0  0  0  0  0  0  0  0  0  0  0  0
   12.3116   -7.5412    0.0000 C   0  0  0  0  0  0  0  0  0  0  0  0
   12.3116   -9.2252    0.0000 C   0  0  0  0  0  0  0  0  0  0  0  0
   11.5824   -7.9622    0.0000 C   0  0  0  0  0  0  0  0  0  0  0  0
   11.5824   -8.8042    0.0000 C   0  0  0  0  0  0  0  0  0  0  0  0
   13.9348   -7.8252    0.0000 O   0  0  0  0  0  0  0  0  0  0  0  0
   15.4566   -8.2818    0.0000 P   0  0  1  0  0  0  0  0  0  0  0  0
   16.0551   -9.4890    0.0000 O   0  0  0  0  0  0  0  0  0  0  0  0
   16.1058  -10.5035    0.0000 C   0  0  0  0  0  0  0  0  0  0  0  0
   14.7870  -10.6760    0.0000 C   0  0  0  0  0  0  0  0  0  0  0  0
   14.3102   -9.2354    0.0000 C   0  0  2  0  0  0  0  0  0  0  0  0
   14.0280  -10.0287    0.0000 C   0  0  0  0  0  0  0  0  0  0  0  0
   13.1998  -10.1810    0.0000 C   0  0  0  0  0  0  0  0  0  0  0  0
   12.9176  -10.9743    0.0000 C   0  0  0  0  0  0  0  0  0  0  0  0
    6.8258  -10.9450   -0.3582 C   0  0  0  0  0  0  0  0  0  0  0  0
    7.1492  -12.2345   -0.3582 C   0  0  0  0  0  0  0  0  0  0  0  0
    9.3826  -11.6743   -0.3582 C   0  0  0  0  0  0  0  0  0  0  0  0
    8.4277  -12.5991   -0.3582 C   0  0  0  0  0  0  0  0  0  0  0  0
   16.9146  -11.5594    0.0000 C   0  0  0  0  0  0  0  0  0  0  0  0
   16.4044  -12.7878    0.0000 C   0  0  0  0  0  0  0  0  0  0  0  0
   14.2770  -11.9043    0.0000 C   0  0  0  0  0  0  0  0  0  0  0  0
   15.0856  -12.9602    0.0000 C   0  0  0  0  0  0  0  0  0  0  0  0
   10.6321  -17.2243   -0.6849 C   0  0  0  0  0  0  0  0  0  0  0  0
   11.8865  -16.7965   -0.6849 C   0  0  0  0  0  0  0  0  0  0  0  0
   11.1457  -14.6238   -0.6849 C   0  0  0  0  0  0  0  0  0  0  0  0
   12.1433  -15.4963   -0.6849 C   0  0  0  0  0  0  0  0  0  0  0  0
    8.3550  -15.1804    0.0163 S   0  0  0  0  0  0  0  0  0  0  0  0
   14.8175  -15.7789   -0.1224 S   0  0  0  0  0  0  0  0  0  0  0  0
   15.0406   -9.6006    0.0000 S   0  0  0  0  0  0  0  0  0  0  0  0
    9.0348   -9.1543    0.0056 S   0  0  0  0  0  0  0  0  0  0  0  0
    6.2494  -15.6235    0.0163 O   0  0  0  0  0  0  0  0  0  0  0  0
    6.5699  -16.8253    0.0163 C   0  0  0  0  0  0  0  0  0  0  0  0
    5.2502  -16.6599    0.0163 C   0  0  0  0  0  0  0  0  0  0  0  0
    7.0864  -18.0509    0.0163 C   0  0  0  0  0  0  0  0  0  0  0  0
    9.0536   -6.9064    0.0056 O   0  0  0  0  0  0  0  0  0  0  0  0
    7.6114   -6.9064    0.0056 C   0  0  0  0  0  0  0  0  0  0  0  0
    7.8945   -5.6069    0.0056 C   0  0  0  0  0  0  0  0  0  0  0  0
    6.3445   -7.3110    0.0056 C   0  0  0  0  0  0  0  0  0  0  0  0
   15.3190   -7.1147    0.0000 O   0  0  0  0  0  0  0  0  0  0  0  0
   16.8253   -7.0506    0.0000 C   0  0  0  0  0  0  0  0  0  0  0  0
   18.0900   -7.4622    0.0000 C   0  0  0  0  0  0  0  0  0  0  0  0
   16.5494   -5.7495    0.0000 C   0  0  0  0  0  0  0  0  0  0  0  0
   16.3606  -17.5624   -0.1224 O   0  0  0  0  0  0  0  0  0  0  0  0
   17.6586  -16.8894   -0.1224 C   0  0  0  0  0  0  0  0  0  0  0  0
   17.7699  -18.2147   -0.1224 C   0  0  0  0  0  0  0  0  0  0  0  0
   18.7507  -16.1304   -0.1224 C   0  0  0  0  0  0  0  0  0  0  0  0
   12.1142   -6.3455    0.0000 O   0  0  0  0  0  0  0  0  0  0  0  0
   18.6360  -11.6816    0.0000 O   0  0  0  0  0  0  0  0  0  0  0  0
   10.7201  -19.1328   -0.6849 O   0  0  0  0  0  0  0  0  0  0  0  0
    5.0796  -10.7522   -0.3582 O   0  0  0  0  0  0  0  0  0  0  0  0
   15.2798  -16.2456    0.6327 H   0  0  0  0  0  0  0  0  0  0  0  0
   13.8632  -14.2343   -0.6554 H   0  0  0  0  0  0  0  0  0  0  0  0
   14.4622  -14.0518    1.2650 H   0  0  0  0  0  0  0  0  0  0  0  0
   12.3786  -14.2458    1.8188 H   0  0  0  0  0  0  0  0  0  0  0  0
   11.7719  -14.0223    0.3574 H   0  0  0  0  0  0  0  0  0  0  0  0
   13.9756  -13.3463    1.4489 H   0  0  0  0  0  0  0  0  0  0  0  0
   12.4651  -12.4766    1.3266 H   0  0  0  0  0  0  0  0  0  0  0  0
   13.3250  -12.9420   -0.1215 H   0  0  0  0  0  0  0  0  0  0  0  0
    7.6244  -14.9177   -0.0111 H   0  0  0  0  0  0  0  0  0  0  0  0
    9.5002  -14.7032   -1.4906 H   0  0  0  0  0  0  0  0  0  0  0  0
    9.9292  -14.5659    0.2813 H   0  0  0  0  0  0  0  0  0  0  0  0
    9.3528  -12.9702    0.3271 H   0  0  0  0  0  0  0  0  0  0  0  0
    8.9238  -13.1074   -1.4447 H   0  0  0  0  0  0  0  0  0  0  0  0
   11.0019  -13.4949   -0.0951 H   0  0  0  0  0  0  0  0  0  0  0  0
   10.3518  -12.1543   -1.0079 H   0  0  0  0  0  0  0  0  0  0  0  0
   10.5565  -13.7129   -1.7706 H   0  0  0  0  0  0  0  0  0  0  0  0
    9.3305   -8.0675   -0.0342 H   0  0  0  0  0  0  0  0  0  0  0  0
    9.4498  -10.1352   -1.1996 H   0  0  0  0  0  0  0  0  0  0  0  0
    9.5244  -10.3249    0.6173 H   0  0  0  0  0  0  0  0  0  0  0  0
   11.1584   -9.8666    0.6273 H   0  0  0  0  0  0  0  0  0  0  0  0
   11.0838   -9.6769   -1.1896 H   0  0  0  0  0  0  0  0  0  0  0  0
   10.5164  -11.5151    0.4194 H   0  0  0  0  0  0  0  0  0  0  0  0
   11.9177  -11.0970   -0.5370 H   0  0  0  0  0  0  0  0  0  0  0  0
   10.3609  -11.2899   -1.3063 H   0  0  0  0  0  0  0  0  0  0  0  0
   12.3116  -10.2572    0.0000 H   0  0  0  0  0  0  0  0  0  0  0  0
   14.8717   -8.3246    0.0000 H   0  0  0  0  0  0  0  0  0  0  0  0
   14.4285  -10.4990    0.8737 H   0  0  0  0  0  0  0  0  0  0  0  0
   14.3469  -10.4032   -0.9503 H   0  0  0  0  0  0  0  0  0  0  0  0
   12.7993   -9.7107   -0.8737 H   0  0  0  0  0  0  0  0  0  0  0  0
   12.8809   -9.8065    0.9503 H   0  0  0  0  0  0  0  0  0  0  0  0
   13.1868  -11.4486   -0.9206 H   0  0  0  0  0  0  0  0  0  0  0  0
   11.8526  -10.9740    0.1029 H   0  0  0  0  0  0  0  0  0  0  0  0
   13.3548  -11.5084    0.8176 H   0  0  0  0  0  0  0  0  0  0  0  0
   10.3750  -11.9573   -0.3582 H   0  0  0  0  0  0  0  0  0  0  0  0
   13.2537  -12.0381    0.0000 H   0  0  0  0  0  0  0  0  0  0  0  0
   11.3457  -13.6114   -0.6849 H   0  0  0  0  0  0  0  0  0  0  0  0
    7.6199  -17.0314    0.0163 H   0  0  0  0  0  0  0  0  0  0  0  0
    5.0218  -15.6146    0.0163 H   0  0  0  0  0  0  0  0  0  0  0  0
    4.8336  -17.1160    0.8900 H   0  0  0  0  0  0  0  0  0  0  0  0
    4.8336  -17.1160   -0.8573 H   0  0  0  0  0  0  0  0  0  0  0  0
    6.2953  -18.7713    0.0163 H   0  0  0  0  0  0  0  0  0  0  0  0
    7.6897  -18.1837    0.8900 H   0  0  0  0  0  0  0  0  0  0  0  0
    7.6897  -18.1837   -0.8573 H   0  0  0  0  0  0  0  0  0  0  0  0
    7.2254   -7.9043    0.0056 H   0  0  0  0  0  0  0  0  0  0  0  0
    8.9561   -5.4731    0.0056 H   0  0  0  0  0  0  0  0  0  0  0  0
    7.4776   -5.1510    0.8793 H   0  0  0  0  0  0  0  0  0  0  0  0
    7.4776   -5.1510   -0.8680 H   0  0  0  0  0  0  0  0  0  0  0  0
    5.6978   -6.4585    0.0056 H   0  0  0  0  0  0  0  0  0  0  0  0
    6.1582   -7.9000    0.8793 H   0  0  0  0  0  0  0  0  0  0  0  0
    6.1582   -7.9000   -0.8680 H   0  0  0  0  0  0  0  0  0  0  0  0
   17.2297   -8.0413    0.0000 H   0  0  0  0  0  0  0  0  0  0  0  0
   18.7414   -6.6133    0.0000 H   0  0  0  0  0  0  0  0  0  0  0  0
   18.2731   -8.0522   -0.8737 H   0  0  0  0  0  0  0  0  0  0  0  0
   18.2731   -8.0522    0.8736 H   0  0  0  0  0  0  0  0  0  0  0  0
   15.4886   -5.6099    0.0000 H   0  0  0  0  0  0  0  0  0  0  0  0
   16.9688   -5.2960   -0.8737 H   0  0  0  0  0  0  0  0  0  0  0  0
   16.9688   -5.2960    0.8736 H   0  0  0  0  0  0  0  0  0  0  0  0
   17.6380  -15.8196   -0.1224 H   0  0  0  0  0  0  0  0  0  0  0  0
   16.7945  -18.6545   -0.1224 H   0  0  0  0  0  0  0  0  0  0  0  0
   18.3024  -18.5279    0.7513 H   0  0  0  0  0  0  0  0  0  0  0  0
   18.3024  -18.5279   -0.9960 H   0  0  0  0  0  0  0  0  0  0  0  0
   19.6193  -16.7552   -0.1224 H   0  0  0  0  0  0  0  0  0  0  0  0
   18.7557  -15.5127    0.7513 H   0  0  0  0  0  0  0  0  0  0  0  0
   18.7557  -15.5127   -0.9960 H   0  0  0  0  0  0  0  0  0  0  0  0
   12.8385   -5.7511    0.0000 H   0  0  0  0  0  0  0  0  0  0  0  0
   19.1608  -10.9053    0.0000 H   0  0  0  0  0  0  0  0  0  0  0  0
    9.9311  -19.6382   -0.6849 H   0  0  0  0  0  0  0  0  0  0  0  0
    4.7030   -9.8942   -0.3582 H   0  0  0  0  0  0  0  0  0  0  0  0
  1  2  1  0  0  0  0
  1 46  1  0  0  0  0
  2  3  1  0  0  0  0
  2 54  2  1  0  0  0
  2 69  1  0  0  0  0
  3 50  1  0  0  0  0
  4 48  1  0  0  0  0
  4 52  1  0  0  0  0
  4 77  1  1  0  0  0
  5  4  1  0  0  0  0
  5 78  1  0  0  0  0
  5 79  1  0  0  0  0
  6  5  1  0  0  0  0
  6 80  1  0  0  0  0
  6 81  1  0  0  0  0
  7  6  1  0  0  0  0
  7 82  1  0  0  0  0
  7 83  1  0  0  0  0
  7 84  1  0  0  0  0
  8  9  1  0  0  0  0
  8 42  1  0  0  0  0
  9 10  1  0  0  0  0
  9 53  2  1  0  0  0
  9 57  1  0  0  0  0
 10 11  1  0  0  0  0
 11 49  1  0  0  0  0
 11 12  2  0  0  0  0
 12 13  1  0  0  0  0
 12 51  1  0  0  0  0
 13 44  1  0  0  0  0
 13 85  1  1  0  0  0
 14 13  1  0  0  0  0
 14 86  1  0  0  0  0
 14 87  1  0  0  0  0
 15 14  1  0  0  0  0
 15 88  1  0  0  0  0
 15 89  1  0  0  0  0
 16 15  1  0  0  0  0
 16 90  1  0  0  0  0
 16 91  1  0  0  0  0
 16 92  1  0  0  0  0
 17 18  1  0  0  0  0
 17 30  1  0  0  0  0
 18 19  1  0  0  0  0
 18 56  2  1  0  0  0
 18 61  1  0  0  0  0
 19 20  1  0  0  0  0
 20 41  1  0  0  0  0
 20 21  2  0  0  0  0
 21 22  1  0  0  0  0
 21 43  1  0  0  0  0
 22 93  1  6  0  0  0
 23 22  1  0  0  0  0
 23 94  1  0  0  0  0
 23 95  1  0  0  0  0
 24 23  1  0  0  0  0
 24 96  1  0  0  0  0
 24 97  1  0  0  0  0
 25 24  1  0  0  0  0
 25 98  1  0  0  0  0
 25 99  1  0  0  0  0
 25100  1  0  0  0  0
 26 27  1  0  0  0  0
 26 28  2  0  0  0  0
 26 32  1  0  0  0  0
 27 29  2  0  0  0  0
 28 30  1  0  0  0  0
 28 73  1  0  0  0  0
 29 31  1  0  0  0  0
 29101  1  0  0  0  0
 30 31  2  0  0  0  0
 31 22  1  0  0  0  0
 32 33  1  0  0  0  0
 33 34  1  0  0  0  0
 33 55  2  6  0  0  0
 33 65  1  0  0  0  0
 34 35  1  0  0  0  0
 35 45  1  0  0  0  0
 35 36  2  0  0  0  0
 36 37  1  0  0  0  0
 36 47  1  0  0  0  0
 37 27  1  0  0  0  0
 37102  1  1  0  0  0
 38 37  1  0  0  0  0
 38103  1  0  0  0  0
 38104  1  0  0  0  0
 39 38  1  0  0  0  0
 39105  1  0  0  0  0
 39106  1  0  0  0  0
 40 39  1  0  0  0  0
 40107  1  0  0  0  0
 40108  1  0  0  0  0
 40109  1  0  0  0  0
 41 42  2  0  0  0  0
 41 76  1  0  0  0  0
 42 44  1  0  0  0  0
 43 44  2  0  0  0  0
 43110  1  0  0  0  0
 45 46  2  0  0  0  0
 45 74  1  0  0  0  0
 46 48  1  0  0  0  0
 47 48  2  0  0  0  0
 47111  1  0  0  0  0
 49 50  2  0  0  0  0
 49 75  1  0  0  0  0
 50 52  1  0  0  0  0
 51 52  2  0  0  0  0
 51112  1  0  0  0  0
 57 58  1  0  0  0  0
 58 59  1  0  0  0  0
 58 60  1  0  0  0  0
 58113  1  0  0  0  0
 59114  1  0  0  0  0
 59115  1  0  0  0  0
 59116  1  0  0  0  0
 60117  1  0  0  0  0
 60118  1  0  0  0  0
 60119  1  0  0  0  0
 61 62  1  0  0  0  0
 62 63  1  0  0  0  0
 62 64  1  0  0  0  0
 62120  1  0  0  0  0
 63121  1  0  0  0  0
 63122  1  0  0  0  0
 63123  1  0  0  0  0
 64124  1  0  0  0  0
 64125  1  0  0  0  0
 64126  1  0  0  0  0
 65 66  1  0  0  0  0
 66 67  1  0  0  0  0
 66 68  1  0  0  0  0
 66127  1  0  0  0  0
 67128  1  0  0  0  0
 67129  1  0  0  0  0
 67130  1  0  0  0  0
 68131  1  0  0  0  0
 68132  1  0  0  0  0
 68133  1  0  0  0  0
 69 70  1  0  0  0  0
 70 71  1  0  0  0  0
 70 72  1  0  0  0  0
 70134  1  0  0  0  0
 71135  1  0  0  0  0
 71136  1  0  0  0  0
 71137  1  0  0  0  0
 72138  1  0  0  0  0
 72139  1  0  0  0  0
 72140  1  0  0  0  0
 73141  1  0  0  0  0
 74142  1  0  0  0  0
 75143  1  0  0  0  0
 76144  1  0  0  0  0
M  END
> <NMREDATA_VERSION>
1.1

> <NMREDATA_LEVEL>
0

> <NMREDATA_SOLVENT>
CDCl3

> <NMREDATA_FORMULA>
C52H68O16P4S4

> <NMREDATA_SMILES>
CCC[C@@H]1c2cc3[C@H](CCC)c4cc5[C@H](c6cc7[C@H](c8cc1c1O[P@](=S)(Oc2c(c3O[P@](=S)(Oc4c(c5O[P@@](=S)(Oc6c(c7O[P@](=S)(Oc8c1O)OC(C)C)O)OC(C)C)O)OC(C)C)O)OC(C)C)CCC)CCC

> <NMREDATA_ASSIGNMENT>
P2, 131.10, 2
P9, 131.10, 9
P18, 131.10, 18
P33, 131.10, 33

> <NMREDATA_1D_31P>
131.10, L=P2
131.10, L=P9
131.10, L=P18
131.10, L=P33

$$$$
