
 OpenBabel06112616432D

 56 61  0  0  1  0  0  0  0  0999 V2000
   -7.9690   -2.4262    0.0000 N   0  0  0  0  0  0  0  0  0  0  0  0
   -7.3812   -1.6172    0.0000 C   0  0  0  0  0  0  0  0  0  0  0  0
   -7.7880   -0.7037    0.0000 N   0  0  0  0  0  0  0  0  0  0  0  0
   -7.2002    0.1053    0.0000 C   0  0  0  0  0  0  0  0  0  0  0  0
   -6.2057    0.0008    0.0000 N   0  0  0  0  0  0  0  0  0  0  0  0
   -5.7989   -0.9127    0.0000 C   0  0  0  0  0  0  0  0  0  0  0  0
   -6.3867   -1.7218    0.0000 C   0  0  0  0  0  0  0  0  0  0  0  0
   -5.7989   -2.5308    0.0000 N   0  0  0  0  0  0  0  0  0  0  0  0
   -4.8479   -2.2218    0.0000 C   0  0  0  0  0  0  0  0  0  0  0  0
   -4.8479   -1.2218    0.0000 N   0  0  0  0  0  0  0  0  0  0  0  0
   -4.0388   -0.6340    0.0000 C   0  0  2  0  0  0  0  0  0  0  0  0
   -3.0878   -0.9430    0.0000 O   0  0  0  0  0  0  0  0  0  0  0  0
   -2.5000   -0.1340    0.0000 C   0  0  2  0  0  0  0  0  0  0  0  0
   -1.5000   -0.1340    0.0000 C   0  0  0  0  0  0  0  0  0  0  0  0
   -1.0000   -1.0000    0.0000 O   0  0  0  0  0  0  0  0  0  0  0  0
    0.0000   -1.0000    0.0000 P   0  0  3  0  0  0  0  0  0  0  0  0
    0.0000   -2.0000    0.0000 O   0  0  0  0  0  0  0  0  0  0  0  0
    1.0000   -1.0000    0.0000 O   0  5  0  0  0  0  0  0  0  0  0  0
    0.0000    0.0000    0.0000 O   0  0  0  0  0  0  0  0  0  0  0  0
    0.0000    1.0000    0.0000 P   0  0  3  0  0  0  0  0  0  0  0  0
   -1.0000    1.0000    0.0000 O   0  0  0  0  0  0  0  0  0  0  0  0
    0.0000    2.0000    0.0000 O   0  5  0  0  0  0  0  0  0  0  0  0
    1.0000    1.0000    0.0000 O   0  0  0  0  0  0  0  0  0  0  0  0
    1.5000    1.8660    0.0000 C   0  0  0  0  0  0  0  0  0  0  0  0
    1.0000    2.7321    0.0000 C   0  0  2  0  0  0  0  0  0  0  0  0
    0.0055    2.8366    0.0000 O   0  0  0  0  0  0  0  0  0  0  0  0
   -0.2024    3.8147    0.0000 C   0  0  2  0  0  0  0  0  0  0  0  0
   -1.1160    4.2215    0.0000 N   0  0  0  0  0  0  0  0  0  0  0  0
   -1.2205    5.2160    0.0000 N   0  3  0  0  0  0  0  0  0  0  0  0
   -1.3250    6.2105    0.0000 N   0  5  0  0  0  0  0  0  0  0  0  0
    0.6636    4.3147    0.0000 C   0  0  1  0  0  0  0  0  0  0  0  0
    0.7681    5.3092    0.0000 O   0  0  0  0  0  0  0  0  0  0  0  0
   -0.0409    5.8970    0.0000 C   0  0  0  0  0  0  0  0  0  0  0  0
    0.0636    6.8916    0.0000 C   0  0  0  0  0  0  0  0  0  0  0  0
   -0.7454    7.4793    0.0000 C   0  0  0  0  0  0  0  0  0  0  0  0
   -0.6409    8.4739    0.0000 C   0  0  0  0  0  0  0  0  0  0  0  0
    0.2727    8.8806    0.0000 C   0  0  0  0  0  0  0  0  0  0  0  0
    0.3772    9.8751    0.0000 O   0  0  0  0  0  0  0  0  0  0  0  0
   -0.4318   10.4629    0.0000 C   0  0  0  0  0  0  0  0  0  0  0  0
    1.0817    8.2928    0.0000 C   0  0  0  0  0  0  0  0  0  0  0  0
    0.9772    7.2983    0.0000 C   0  0  0  0  0  0  0  0  0  0  0  0
    1.4067    3.6456    0.0000 C   0  0  1  0  0  0  0  0  0  0  0  0
    2.3849    3.8535    0.0000 O   0  0  0  0  0  0  0  0  0  0  0  0
    2.6939    4.8046    0.0000 C   0  0  0  0  0  0  0  0  0  0  0  0
    3.6720    5.0125    0.0000 C   0  0  0  0  0  0  0  0  0  0  0  0
    3.9811    5.9635    0.0000 C   0  0  0  0  0  0  0  0  0  0  0  0
    4.9592    6.1714    0.0000 C   0  0  0  0  0  0  0  0  0  0  0  0
    5.6283    5.4283    0.0000 C   0  0  0  0  0  0  0  0  0  0  0  0
    6.6065    5.6362    0.0000 O   0  0  0  0  0  0  0  0  0  0  0  0
    7.2756    4.8931    0.0000 C   0  0  0  0  0  0  0  0  0  0  0  0
    5.3193    4.4772    0.0000 C   0  0  0  0  0  0  0  0  0  0  0  0
    4.3412    4.2693    0.0000 C   0  0  0  0  0  0  0  0  0  0  0  0
   -3.0878    0.6750    0.0000 C   0  0  1  0  0  0  0  0  0  0  0  0
   -2.7788    1.6261    0.0000 O   0  0  0  0  0  0  0  0  0  0  0  0
   -4.0388    0.3660    0.0000 C   0  0  1  0  0  0  0  0  0  0  0  0
   -4.8479    0.9538    0.0000 O   0  0  0  0  0  0  0  0  0  0  0  0
  1  2  1  0  0  0  0
  2  7  2  0  0  0  0
  2  3  1  0  0  0  0
  3  4  2  0  0  0  0
  4  5  1  0  0  0  0
  5  6  2  0  0  0  0
  6 10  1  0  0  0  0
  6  7  1  0  0  0  0
  7  8  1  0  0  0  0
  8  9  2  0  0  0  0
  9 10  1  0  0  0  0
 11 10  1  1  0  0  0
 11 12  1  0  0  0  0
 11 55  1  0  0  0  0
 12 13  1  0  0  0  0
 13 14  1  1  0  0  0
 13 53  1  0  0  0  0
 14 15  1  0  0  0  0
 15 16  1  0  0  0  0
 16 17  2  0  0  0  0
 16 18  1  0  0  0  0
 16 19  1  0  0  0  0
 19 20  1  0  0  0  0
 20 21  2  0  0  0  0
 20 22  1  0  0  0  0
 20 23  1  0  0  0  0
 23 24  1  0  0  0  0
 25 24  1  6  0  0  0
 25 26  1  0  0  0  0
 25 42  1  0  0  0  0
 26 27  1  0  0  0  0
 27 28  1  6  0  0  0
 27 31  1  0  0  0  0
 28 29  2  0  0  0  0
 29 30  2  0  0  0  0
 31 32  1  1  0  0  0
 31 42  1  0  0  0  0
 32 33  1  0  0  0  0
 33 34  1  0  0  0  0
 34 41  2  0  0  0  0
 34 35  1  0  0  0  0
 35 36  2  0  0  0  0
 36 37  1  0  0  0  0
 37 38  1  0  0  0  0
 37 40  2  0  0  0  0
 38 39  1  0  0  0  0
 40 41  1  0  0  0  0
 42 43  1  1  0  0  0
 43 44  1  0  0  0  0
 44 45  1  0  0  0  0
 45 52  2  0  0  0  0
 45 46  1  0  0  0  0
 46 47  2  0  0  0  0
 47 48  1  0  0  0  0
 48 49  1  0  0  0  0
 48 51  2  0  0  0  0
 49 50  1  0  0  0  0
 51 52  1  0  0  0  0
 53 54  1  6  0  0  0
 53 55  1  0  0  0  0
 55 56  1  6  0  0  0
M  END
> <NMREDATA_VERSION>
1.1

> <NMREDATA_LEVEL>
0

> <NMREDATA_SOLVENT>
D2O

> <NMREDATA_FORMULA>
C31H36N8O15P2

> <NMREDATA_SMILES>
[N-]=[N+]=N[C@H]1O[C@H]([C@@H]([C@@H]1OCc1ccc(cc1)OC)OCc1ccc(cc1)OC)COP(=O)(OP(=O)(OC[C@H]1O[C@H]([C@@H]([C@@H]1O)O)n1cnc2c1ncnc2N)[O-])[O-]

> <NMREDATA_ASSIGNMENT>
P16, -10.54, 16
P20, -10.54, 20

> <NMREDATA_1D_31P>
Larmor=202
-10.54, L=P16
-10.54, L=P20

$$$$
