
 OpenBabel06112616432D

 46 53  0  0  1  0  0  0  0  0999 V2000
    2.4537    1.5685    0.0000 C   0  0  0  0  0  0  0  0  0  0  0  0
    1.9630    2.4185    0.0000 C   0  0  0  0  0  0  0  0  0  0  0  0
    0.9815    2.4185    0.0000 C   0  0  0  0  0  0  0  0  0  0  0  0
    0.4907    1.5685    0.0000 C   0  0  0  0  0  0  0  0  0  0  0  0
   -0.4907    1.5685    0.0000 C   0  0  0  0  0  0  0  0  0  0  0  0
   -0.9815    2.4185    0.0000 C   0  0  0  0  0  0  0  0  0  0  0  0
   -0.4907    3.2685    0.0000 C   0  0  0  0  0  0  0  0  0  0  0  0
    0.4907    3.2685    0.0000 C   0  0  0  0  0  0  0  0  0  0  0  0
   -1.9630    2.4185    0.0000 C   0  0  0  0  0  0  0  0  0  0  0  0
   -2.5399    1.6244    0.0000 N   0  0  0  0  0  0  0  0  0  0  0  0
   -3.4733    1.9277    0.0000 C   0  0  1  0  0  0  0  0  0  0  0  0
   -4.2673    1.3508    0.0000 C   0  0  0  0  0  0  0  0  0  0  0  0
   -5.1640    1.7500    0.0000 C   0  0  0  0  0  0  0  0  0  0  0  0
   -5.9580    1.1731    0.0000 C   0  0  0  0  0  0  0  0  0  0  0  0
   -6.8546    1.5723    0.0000 C   0  0  0  0  0  0  0  0  0  0  0  0
   -6.9572    2.5484    0.0000 C   0  0  0  0  0  0  0  0  0  0  0  0
   -6.1632    3.1253    0.0000 C   0  0  0  0  0  0  0  0  0  0  0  0
   -5.2666    2.7261    0.0000 C   0  0  0  0  0  0  0  0  0  0  0  0
   -3.4733    2.9092    0.0000 C   0  0  0  0  0  0  0  0  0  0  0  0
   -2.5399    3.2125    0.0000 O   0  0  0  0  0  0  0  0  0  0  0  0
   -1.4722   -0.1315    0.0000 C   0  0  0  0  0  0  0  0  0  0  0  0
   -2.4537   -0.1315    0.0000 C   0  0  0  0  0  0  0  0  0  0  0  0
   -2.9444   -0.9815    0.0000 C   0  0  0  0  0  0  0  0  0  0  0  0
   -3.9259   -0.9815    0.0000 C   0  0  0  0  0  0  0  0  0  0  0  0
   -4.4167   -0.1315    0.0000 C   0  0  0  0  0  0  0  0  0  0  0  0
   -3.9259    0.7185    0.0000 C   0  0  0  0  0  0  0  0  0  0  0  0
   -2.9444    0.7185    0.0000 C   0  0  0  0  0  0  0  0  0  0  0  0
   -2.4537   -1.8315    0.0000 C   0  0  0  0  0  0  0  0  0  0  0  0
   -1.4722   -1.8315    0.0000 C   0  0  0  0  0  0  0  0  0  0  0  0
   -0.9815   -0.9815    0.0000 C   0  0  0  0  0  0  0  0  0  0  0  0
    0.0000   -0.9815    0.0000 P   0  0  0  0  0  0  0  0  0  0  0  0
    0.0000   -1.9630    0.0000 C   0  0  0  0  0  0  0  0  0  0  0  0
    0.8500   -2.4537    0.0000 C   0  0  0  0  0  0  0  0  0  0  0  0
    0.8500   -3.4352    0.0000 C   0  0  0  0  0  0  0  0  0  0  0  0
    0.0000   -3.9259    0.0000 C   0  0  0  0  0  0  0  0  0  0  0  0
   -0.8500   -3.4352    0.0000 C   0  0  0  0  0  0  0  0  0  0  0  0
   -0.8500   -2.4537    0.0000 C   0  0  0  0  0  0  0  0  0  0  0  0
    0.9815   -0.9815    0.0000 C   0  0  0  0  0  0  0  0  0  0  0  0
    1.4722   -0.1315    0.0000 C   0  0  0  0  0  0  0  0  0  0  0  0
    2.4537   -0.1315    0.0000 C   0  0  0  0  0  0  0  0  0  0  0  0
    2.9444   -0.9815    0.0000 C   0  0  0  0  0  0  0  0  0  0  0  0
    2.4537   -1.8315    0.0000 C   0  0  0  0  0  0  0  0  0  0  0  0
    1.4722   -1.8315    0.0000 C   0  0  0  0  0  0  0  0  0  0  0  0
    0.0000    0.0000    0.0000 O   0  0  0  0  0  0  0  0  0  0  0  0
    0.9815    0.7185    0.0000 C   0  0  0  0  0  0  0  0  0  0  0  0
    1.9630    0.7185    0.0000 C   0  0  0  0  0  0  0  0  0  0  0  0
  1 46  1  0  0  0  0
  1  2  2  0  0  0  0
  2  3  1  0  0  0  0
  3  8  1  0  0  0  0
  3  4  2  0  0  0  0
  4  5  1  0  0  0  0
  4 45  1  0  0  0  0
  5  6  2  0  0  0  0
  5 21  1  0  0  0  0
  6  7  1  0  0  0  0
  6  9  1  0  0  0  0
  7  8  2  0  0  0  0
  9 20  1  0  0  0  0
  9 10  2  0  0  0  0
 10 11  1  0  0  0  0
 11 12  1  1  0  0  0
 11 19  1  0  0  0  0
 12 13  1  0  0  0  0
 13 18  1  0  0  0  0
 13 14  2  0  0  0  0
 14 15  1  0  0  0  0
 15 16  2  0  0  0  0
 16 17  1  0  0  0  0
 17 18  2  0  0  0  0
 19 20  1  0  0  0  0
 21 30  1  0  0  0  0
 21 22  2  0  0  0  0
 22 27  1  0  0  0  0
 22 23  1  0  0  0  0
 23 24  1  0  0  0  0
 23 28  2  0  0  0  0
 24 25  2  0  0  0  0
 25 26  1  0  0  0  0
 26 27  2  0  0  0  0
 28 29  1  0  0  0  0
 29 30  2  0  0  0  0
 30 31  1  0  0  0  0
 31 32  1  0  0  0  0
 31 38  1  0  0  0  0
 31 44  2  0  0  0  0
 32 37  1  0  0  0  0
 32 33  2  0  0  0  0
 33 34  1  0  0  0  0
 34 35  2  0  0  0  0
 35 36  1  0  0  0  0
 36 37  2  0  0  0  0
 38 43  1  0  0  0  0
 38 39  2  0  0  0  0
 39 40  1  0  0  0  0
 40 41  2  0  0  0  0
 41 42  1  0  0  0  0
 42 43  2  0  0  0  0
 45 46  2  0  0  0  0
M  END
> <NMREDATA_VERSION>
1.1

> <NMREDATA_LEVEL>
0

> <NMREDATA_SOLVENT>
CDCl3

> <NMREDATA_FORMULA>
C42H32NO2P

> <NMREDATA_SMILES>
O=P(c1ccc2c(c1c1c(ccc3c1cccc3)C1=N[C@H](CO1)Cc1ccccc1)cccc2)(c1ccccc1)c1ccccc1

> <NMREDATA_ASSIGNMENT>
P31, 28.10, 31

> <NMREDATA_1D_31P>
Larmor=162
28.10, L=P31

$$$$
