
 OpenBabel06112616462D

 36 39  0  0  1  0  0  0  0  0999 V2000
    4.3875   -1.8194    0.0000 C   0  0  0  0  0  0  0  0  0  0  0  0
    3.9000   -2.6637    0.0000 C   0  0  0  0  0  0  0  0  0  0  0  0
    3.9000   -3.6387    0.0000 C   0  0  0  0  0  0  0  0  0  0  0  0
    4.7444   -3.1512    0.0000 C   0  0  0  0  0  0  0  0  0  0  0  0
    2.9250   -2.6637    0.0000 C   0  0  0  0  0  0  0  0  0  0  0  0
    2.4375   -1.8194    0.0000 C   0  0  0  0  0  0  0  0  0  0  0  0
    1.4625   -1.8194    0.0000 C   0  0  0  0  0  0  0  0  0  0  0  0
    0.9750   -0.9750    0.0000 C   0  0  3  0  0  0  0  0  0  0  0  0
    1.9500    0.7137    0.0000 C   0  0  0  0  0  0  0  0  0  0  0  0
    1.4625    1.5581    0.0000 C   0  0  0  0  0  0  0  0  0  0  0  0
    1.9500    2.4025    0.0000 C   0  0  0  0  0  0  0  0  0  0  0  0
    2.9250    2.4025    0.0000 C   0  0  0  0  0  0  0  0  0  0  0  0
    3.4125    1.5581    0.0000 C   0  0  0  0  0  0  0  0  0  0  0  0
    2.9250    0.7137    0.0000 C   0  0  0  0  0  0  0  0  0  0  0  0
    0.0000   -0.9750    0.0000 P   0  0  0  0  0  0  0  0  0  0  0  0
    0.0000   -1.9500    0.0000 O   0  0  0  0  0  0  0  0  0  0  0  0
   -0.9750   -0.9750    0.0000 C   0  0  0  0  0  0  0  0  0  0  0  0
   -1.4625   -0.1306    0.0000 C   0  0  0  0  0  0  0  0  0  0  0  0
   -2.4375   -0.1306    0.0000 C   0  0  0  0  0  0  0  0  0  0  0  0
   -2.9250   -0.9750    0.0000 C   0  0  0  0  0  0  0  0  0  0  0  0
   -2.4375   -1.8194    0.0000 C   0  0  0  0  0  0  0  0  0  0  0  0
   -1.4625   -1.8194    0.0000 C   0  0  0  0  0  0  0  0  0  0  0  0
    0.0000    0.0000    0.0000 C   0  0  0  0  0  0  0  0  0  0  0  0
    0.8444    0.4875    0.0000 C   0  0  0  0  0  0  0  0  0  0  0  0
    0.8444    1.4625    0.0000 C   0  0  0  0  0  0  0  0  0  0  0  0
    0.0000    1.9500    0.0000 C   0  0  0  0  0  0  0  0  0  0  0  0
   -0.8444    1.4625    0.0000 C   0  0  0  0  0  0  0  0  0  0  0  0
   -0.8444    0.4875    0.0000 C   0  0  0  0  0  0  0  0  0  0  0  0
    0.9750   -2.6637    0.0000 C   0  0  0  0  0  0  0  0  0  0  0  0
    1.4625   -3.5081    0.0000 C   0  0  0  0  0  0  0  0  0  0  0  0
    0.9750   -4.3525    0.0000 C   0  0  0  0  0  0  0  0  0  0  0  0
    0.1306   -4.8400    0.0000 C   0  0  0  0  0  0  0  0  0  0  0  0
    0.1306   -3.8650    0.0000 C   0  0  0  0  0  0  0  0  0  0  0  0
    1.4625   -5.1969    0.0000 C   0  0  0  0  0  0  0  0  0  0  0  0
    2.4375   -3.5081    0.0000 C   0  0  0  0  0  0  0  0  0  0  0  0
    2.9250   -4.3525    0.0000 O   0  0  0  0  0  0  0  0  0  0  0  0
  1  2  1  0  0  0  0
  2  3  1  0  0  0  0
  2  4  1  0  0  0  0
  2  5  1  0  0  0  0
  5 35  2  0  0  0  0
  5  6  1  0  0  0  0
  6  7  2  0  0  0  0
  7  8  1  0  0  0  0
  7 29  1  0  0  0  0
  8  9  1  0  0  0  0
  8 15  1  0  0  0  0
  9 14  2  0  0  0  0
  9 10  1  0  0  0  0
 10 11  2  0  0  0  0
 11 12  1  0  0  0  0
 12 13  2  0  0  0  0
 13 14  1  0  0  0  0
 15 16  2  0  0  0  0
 15 17  1  0  0  0  0
 15 23  1  0  0  0  0
 17 22  2  0  0  0  0
 17 18  1  0  0  0  0
 18 19  2  0  0  0  0
 19 20  1  0  0  0  0
 20 21  2  0  0  0  0
 21 22  1  0  0  0  0
 23 28  2  0  0  0  0
 23 24  1  0  0  0  0
 24 25  2  0  0  0  0
 25 26  1  0  0  0  0
 26 27  2  0  0  0  0
 27 28  1  0  0  0  0
 29 30  2  0  0  0  0
 30 31  1  0  0  0  0
 30 35  1  0  0  0  0
 31 32  1  0  0  0  0
 31 33  1  0  0  0  0
 31 34  1  0  0  0  0
 35 36  1  0  0  0  0
M  END
> <NMREDATA_VERSION>
1.1

> <NMREDATA_LEVEL>
0

> <NMREDATA_SOLVENT>
CDCl3

> <NMREDATA_FORMULA>
C33H37O2P

> <NMREDATA_SMILES>
Oc1c(cc(cc1C(C)(C)C)C(P(=O)(c1ccccc1)c1ccccc1)c1ccccc1)C(C)(C)C

> <NMREDATA_ASSIGNMENT>
P15, 31.40, 15

> <NMREDATA_1D_31P>
Larmor=160
31.40, L=P15

$$$$
