
 OpenBabel06112616492D

 33 34  0  0  1  0  0  0  0  0999 V2000
   -5.9282   -4.0000    0.0000 C   0  0  0  0  0  0  0  0  0  0  0  0
   -6.7942   -4.5000    0.0000 O   0  0  0  0  0  0  0  0  0  0  0  0
   -6.7942   -5.5000    0.0000 C   0  0  0  0  0  0  0  0  0  0  0  0
   -5.9282   -3.0000    0.0000 C   0  0  0  0  0  0  0  0  0  0  0  0
   -5.0622   -2.5000    0.0000 C   0  0  0  0  0  0  0  0  0  0  0  0
   -4.1962   -3.0000    0.0000 C   0  0  0  0  0  0  0  0  0  0  0  0
   -3.3301   -2.5000    0.0000 C   0  0  0  0  0  0  0  0  0  0  0  0
   -2.4641   -3.0000    0.0000 O   0  0  0  0  0  0  0  0  0  0  0  0
   -3.3301   -1.5000    0.0000 O   0  0  0  0  0  0  0  0  0  0  0  0
   -2.4641   -1.0000    0.0000 C   0  0  0  0  0  0  0  0  0  0  0  0
   -1.5981   -1.5000    0.0000 C   0  0  0  0  0  0  0  0  0  0  0  0
   -0.7321   -1.0000    0.0000 C   0  0  0  0  0  0  0  0  0  0  0  0
    0.1340   -1.5000    0.0000 C   0  0  3  0  0  0  0  0  0  0  0  0
    1.0000   -1.0000    0.0000 C   0  0  0  0  0  0  0  0  0  0  0  0
    1.0000    0.0000    0.0000 P   0  0  0  0  0  0  0  0  0  0  0  0
    2.0000    0.0000    0.0000 O   0  0  0  0  0  0  0  0  0  0  0  0
    1.0000    1.0000    0.0000 C   0  0  0  0  0  0  0  0  0  0  0  0
    0.5000    1.8660    0.0000 C   0  0  0  0  0  0  0  0  0  0  0  0
    0.0000    1.0000    0.0000 C   0  0  0  0  0  0  0  0  0  0  0  0
    1.8660    1.5000    0.0000 C   0  0  0  0  0  0  0  0  0  0  0  0
    0.0000    0.0000    0.0000 C   0  0  0  0  0  0  0  0  0  0  0  0
   -0.8660   -0.5000    0.0000 C   0  0  0  0  0  0  0  0  0  0  0  0
    0.0000   -1.0000    0.0000 C   0  0  0  0  0  0  0  0  0  0  0  0
   -0.5000    0.8660    0.0000 C   0  0  0  0  0  0  0  0  0  0  0  0
    0.1340   -2.5000    0.0000 C   0  0  0  0  0  0  0  0  0  0  0  0
   -0.7321   -3.0000    0.0000 C   0  0  0  0  0  0  0  0  0  0  0  0
   -0.7321   -4.0000    0.0000 C   0  0  0  0  0  0  0  0  0  0  0  0
   -1.5981   -4.5000    0.0000 C   0  0  0  0  0  0  0  0  0  0  0  0
    0.1340   -4.5000    0.0000 C   0  0  0  0  0  0  0  0  0  0  0  0
    1.0000   -4.0000    0.0000 C   0  0  0  0  0  0  0  0  0  0  0  0
    1.0000   -3.0000    0.0000 N   0  0  0  0  0  0  0  0  0  0  0  0
   -4.1962   -4.0000    0.0000 C   0  0  0  0  0  0  0  0  0  0  0  0
   -5.0622   -4.5000    0.0000 C   0  0  0  0  0  0  0  0  0  0  0  0
  1 33  2  0  0  0  0
  1  2  1  0  0  0  0
  1  4  1  0  0  0  0
  2  3  1  0  0  0  0
  4  5  2  0  0  0  0
  5  6  1  0  0  0  0
  6  7  1  0  0  0  0
  6 32  2  0  0  0  0
  7  8  2  0  0  0  0
  7  9  1  0  0  0  0
  9 10  1  0  0  0  0
 10 11  1  0  0  0  0
 11 12  1  0  0  0  0
 12 13  1  0  0  0  0
 13 14  1  0  0  0  0
 13 25  1  0  0  0  0
 14 15  1  0  0  0  0
 15 16  2  0  0  0  0
 15 17  1  0  0  0  0
 15 21  1  0  0  0  0
 17 18  1  0  0  0  0
 17 19  1  0  0  0  0
 17 20  1  0  0  0  0
 21 22  1  0  0  0  0
 21 23  1  0  0  0  0
 21 24  1  0  0  0  0
 25 31  2  0  0  0  0
 25 26  1  0  0  0  0
 26 27  2  0  0  0  0
 27 28  1  0  0  0  0
 27 29  1  0  0  0  0
 29 30  2  0  0  0  0
 30 31  1  0  0  0  0
 32 33  1  0  0  0  0
M  END
> <NMREDATA_VERSION>
1.1

> <NMREDATA_LEVEL>
0

> <NMREDATA_SOLVENT>
CDCl3

> <NMREDATA_FORMULA>
C27H40NO4P

> <NMREDATA_SMILES>
COc1ccc(cc1)C(=O)OCCCC(c1nccc(c1)C)CP(=O)(C(C)(C)C)C(C)(C)C

> <NMREDATA_ASSIGNMENT>
P15, 60.00, 15

> <NMREDATA_1D_31P>
Larmor=162
60.00, L=P15

$$$$
