
 OpenBabel06112616422D

 33 35  0  0  0  0  0  0  0  0999 V2000
    2.1839   -8.2778    0.0000 C    0  0  0  0  0  0  0  0  0  0  0  0
    3.0259   -7.7917    0.0000 O    0  0  0  0  0  0  0  0  0  0  0  0
    3.0259   -6.8194    0.0000 C    0  0  0  0  0  0  0  0  0  0  0  0
    2.1839   -6.3333    0.0000 C    0  0  0  0  0  0  0  0  0  0  0  0
    1.3420   -6.8194    0.0000 O    0  0  0  0  0  0  0  0  0  0  0  0
    0.5000   -6.3333    0.0000 C    0  0  0  0  0  0  0  0  0  0  0  0
    2.1839   -5.3611    0.0000 C    0  0  0  0  0  0  0  0  0  0  0  0
    1.3420   -4.8750    0.0000 O    0  0  0  0  0  0  0  0  0  0  0  0
    0.5000   -5.3611    0.0000 C    0  0  0  0  0  0  0  0  0  0  0  0
    3.0259   -4.8750    0.0000 C    0  0  0  0  0  0  0  0  0  0  0  0
    3.8679   -5.3611    0.0000 C    0  0  0  0  0  0  0  0  0  0  0  0
    5.5518   -4.3889    0.0000 C    0  0  0  0  0  0  0  0  0  0  0  0
    5.5518   -3.4167    0.0000 P    0  3  0  0  0  0  0  0  0  0  0  0
    6.5240   -3.4167    0.0000 C    0  0  0  0  0  0  0  0  0  0  0  0
    7.0101   -2.5747    0.0000 C    0  0  0  0  0  0  0  0  0  0  0  0
    7.9824   -2.5747    0.0000 C    0  0  0  0  0  0  0  0  0  0  0  0
    8.4685   -3.4167    0.0000 C    0  0  0  0  0  0  0  0  0  0  0  0
    7.9824   -4.2586    0.0000 C    0  0  0  0  0  0  0  0  0  0  0  0
    7.0101   -4.2586    0.0000 C    0  0  0  0  0  0  0  0  0  0  0  0
    5.5518   -2.4444    0.0000 C    0  0  0  0  0  0  0  0  0  0  0  0
    4.7098   -1.9583    0.0000 C    0  0  0  0  0  0  0  0  0  0  0  0
    4.7098   -0.9861    0.0000 C    0  0  0  0  0  0  0  0  0  0  0  0
    5.5518   -0.5000    0.0000 C    0  0  0  0  0  0  0  0  0  0  0  0
    6.3938   -0.9861    0.0000 C    0  0  0  0  0  0  0  0  0  0  0  0
    6.3938   -1.9583    0.0000 C    0  0  0  0  0  0  0  0  0  0  0  0
    4.5796   -3.4167    0.0000 C    0  0  0  0  0  0  0  0  0  0  0  0
    4.0935   -4.2586    0.0000 C    0  0  0  0  0  0  0  0  0  0  0  0
    3.1213   -4.2586    0.0000 C    0  0  0  0  0  0  0  0  0  0  0  0
    2.6351   -3.4167    0.0000 C    0  0  0  0  0  0  0  0  0  0  0  0
    3.1213   -2.5747    0.0000 C    0  0  0  0  0  0  0  0  0  0  0  0
    4.0935   -2.5747    0.0000 C    0  0  0  0  0  0  0  0  0  0  0  0
    3.8679   -6.3333    0.0000 C    0  0  0  0  0  0  0  0  0  0  0  0
    9.4685   -0.5000    0.0000 Br   0  5  0  0  0  0  0  0  0  0  0  0
  1  2  1  0  0  0  0
  2  3  1  0  0  0  0
  3 32  2  0  0  0  0
  3  4  1  0  0  0  0
  4  5  1  0  0  0  0
  4  7  2  0  0  0  0
  5  6  1  0  0  0  0
  7  8  1  0  0  0  0
  7 10  1  0  0  0  0
  8  9  1  0  0  0  0
 10 11  2  0  0  0  0
 11 12  1  0  0  0  0
 11 32  1  0  0  0  0
 12 13  1  0  0  0  0
 13 14  1  0  0  0  0
 13 20  1  0  0  0  0
 13 26  1  0  0  0  0
 14 19  2  0  0  0  0
 14 15  1  0  0  0  0
 15 16  2  0  0  0  0
 16 17  1  0  0  0  0
 17 18  2  0  0  0  0
 18 19  1  0  0  0  0
 20 25  2  0  0  0  0
 20 21  1  0  0  0  0
 21 22  2  0  0  0  0
 22 23  1  0  0  0  0
 23 24  2  0  0  0  0
 24 25  1  0  0  0  0
 26 31  2  0  0  0  0
 26 27  1  0  0  0  0
 27 28  2  0  0  0  0
 28 29  1  0  0  0  0
 29 30  2  0  0  0  0
 30 31  1  0  0  0  0
M  END
> <NMREDATA_VERSION>
1.1

> <NMREDATA_LEVEL>
0

> <NMREDATA_SOLVENT>
CDCl3

> <NMREDATA_FORMULA>
C28H28BrO3P

> <NMREDATA_SMILES>
COc1cc(cc(c1OC)OC)CP(c1ccccc1)(c1ccccc1)c1ccccc1.Br

> <NMREDATA_ASSIGNMENT>
P13, 23.18, 13

> <NMREDATA_1D_31P>
Larmor=162
23.18, L=P13

$$$$
