
 OpenBabel06112616442D

 29 31  0  0  1  0  0  0  0  0999 V2000
   -3.4204    2.6113    0.0000 C   0  0  0  0  0  0  0  0  0  0  0  0
   -3.0497    1.7163    0.0000 C   0  0  0  0  0  0  0  0  0  0  0  0
   -2.0892    1.5898    0.0000 C   0  0  0  0  0  0  0  0  0  0  0  0
   -1.7185    0.6948    0.0000 C   0  0  0  0  0  0  0  0  0  0  0  0
   -2.3082   -0.0737    0.0000 C   0  0  0  0  0  0  0  0  0  0  0  0
   -1.9375   -0.9687    0.0000 C   0  0  2  0  0  0  0  0  0  0  0  0
   -1.3478   -1.7373    0.0000 O   0  0  0  0  0  0  0  0  0  0  0  0
   -1.7185   -2.6323    0.0000 C   0  0  0  0  0  0  0  0  0  0  0  0
   -1.1287   -3.4009    0.0000 O   0  0  0  0  0  0  0  0  0  0  0  0
   -2.6789   -2.7588    0.0000 C   0  0  0  0  0  0  0  0  0  0  0  0
   -3.2687   -1.9902    0.0000 C   0  0  0  0  0  0  0  0  0  0  0  0
   -4.2291   -2.1167    0.0000 C   0  0  0  0  0  0  0  0  0  0  0  0
   -4.5999   -3.0117    0.0000 C   0  0  0  0  0  0  0  0  0  0  0  0
   -5.5603   -3.1381    0.0000 C   0  0  0  0  0  0  0  0  0  0  0  0
   -6.1501   -2.3695    0.0000 C   0  0  0  0  0  0  0  0  0  0  0  0
   -7.1105   -2.4960    0.0000 F   0  0  0  0  0  0  0  0  0  0  0  0
   -5.7793   -1.4745    0.0000 C   0  0  0  0  0  0  0  0  0  0  0  0
   -4.8189   -1.3481    0.0000 C   0  0  0  0  0  0  0  0  0  0  0  0
   -2.8980   -1.0952    0.0000 C   0  0  0  0  0  0  0  0  0  0  0  0
    0.0000   -0.9688    0.0000 P   0  0  0  0  0  0  0  0  0  0  0  0
    0.0000   -1.9375    0.0000 O   0  0  0  0  0  0  0  0  0  0  0  0
    0.8390   -2.4219    0.0000 C   0  0  0  0  0  0  0  0  0  0  0  0
    1.6779   -1.9375    0.0000 C   0  0  0  0  0  0  0  0  0  0  0  0
    0.9687   -0.9688    0.0000 O   0  0  0  0  0  0  0  0  0  0  0  0
    1.4531   -0.1298    0.0000 C   0  0  0  0  0  0  0  0  0  0  0  0
    2.4219   -0.1298    0.0000 C   0  0  0  0  0  0  0  0  0  0  0  0
    0.0000    0.0000    0.0000 O   0  0  0  0  0  0  0  0  0  0  0  0
   -3.2687    0.0527    0.0000 C   0  0  0  0  0  0  0  0  0  0  0  0
   -3.6394    0.9477    0.0000 C   0  0  0  0  0  0  0  0  0  0  0  0
  1  2  1  0  0  0  0
  2 29  2  0  0  0  0
  2  3  1  0  0  0  0
  3  4  2  0  0  0  0
  4  5  1  0  0  0  0
  5  6  1  0  0  0  0
  5 28  2  0  0  0  0
  6 19  1  0  0  0  0
  6  7  1  0  0  0  0
  6 20  1  1  0  0  0
  7  8  1  0  0  0  0
  8  9  2  0  0  0  0
  8 10  1  0  0  0  0
 10 11  2  0  0  0  0
 11 12  1  0  0  0  0
 11 19  1  0  0  0  0
 12 18  2  0  0  0  0
 12 13  1  0  0  0  0
 13 14  2  0  0  0  0
 14 15  1  0  0  0  0
 15 16  1  0  0  0  0
 15 17  2  0  0  0  0
 17 18  1  0  0  0  0
 20 21  1  0  0  0  0
 20 24  1  0  0  0  0
 20 27  2  0  0  0  0
 21 22  1  0  0  0  0
 22 23  1  0  0  0  0
 24 25  1  0  0  0  0
 25 26  1  0  0  0  0
 28 29  1  0  0  0  0
M  END
> <NMREDATA_VERSION>
1.1

> <NMREDATA_LEVEL>
0

> <NMREDATA_SOLVENT>
CDCl3

> <NMREDATA_FORMULA>
C22H24FO5P

> <NMREDATA_SMILES>
CCOP(=O)([C@]1(OC(=O)C=C(C1)c1ccc(cc1)F)c1ccc(cc1)C)OCC

> <NMREDATA_ASSIGNMENT>
P20, 16.34, 20

> <NMREDATA_1D_31P>
Larmor=162
16.34, L=P20

$$$$
