
 OpenBabel06112616462D

 33 38  0  0  0  0  0  0  0  0999 V2000
    0.8027   -0.4634    0.0000 C   0  0  0  0  0  0  0  0  0  0  0  0
    0.8027   -1.3902    0.0000 C   0  0  0  0  0  0  0  0  0  0  0  0
    0.0000   -1.8537    0.0000 C   0  0  0  0  0  0  0  0  0  0  0  0
   -0.8027   -1.3902    0.0000 C   0  0  0  0  0  0  0  0  0  0  0  0
   -1.6053   -1.8537    0.0000 P   0  0  0  0  0  0  0  0  0  0  0  0
   -2.4080   -1.3902    0.0000 C   0  0  0  0  0  0  0  0  0  0  0  0
   -3.2106   -1.8537    0.0000 C   0  0  0  0  0  0  0  0  0  0  0  0
   -4.0133   -1.3902    0.0000 C   0  0  0  0  0  0  0  0  0  0  0  0
   -4.0133   -0.4634    0.0000 C   0  0  0  0  0  0  0  0  0  0  0  0
   -3.2106    0.0000    0.0000 C   0  0  0  0  0  0  0  0  0  0  0  0
   -2.4080   -0.4634    0.0000 C   0  0  0  0  0  0  0  0  0  0  0  0
   -1.6053   -2.7805    0.0000 C   0  0  0  0  0  0  0  0  0  0  0  0
   -0.8027   -3.2439    0.0000 C   0  0  0  0  0  0  0  0  0  0  0  0
    2.4080   -1.3902    0.0000 C   0  0  0  0  0  0  0  0  0  0  0  0
    2.4080   -0.4634    0.0000 C   0  0  0  0  0  0  0  0  0  0  0  0
    3.2106    0.0000    0.0000 C   0  0  0  0  0  0  0  0  0  0  0  0
    3.2106    0.9268    0.0000 C   0  0  0  0  0  0  0  0  0  0  0  0
    2.4080    1.3902    0.0000 C   0  0  0  0  0  0  0  0  0  0  0  0
    1.6053    0.9268    0.0000 C   0  0  0  0  0  0  0  0  0  0  0  0
    1.6053    0.0000    0.0000 C   0  0  0  0  0  0  0  0  0  0  0  0
    4.0133   -0.4634    0.0000 C   0  0  0  0  0  0  0  0  0  0  0  0
    4.0133   -1.3902    0.0000 C   0  0  0  0  0  0  0  0  0  0  0  0
    3.2106   -1.8537    0.0000 C   0  0  0  0  0  0  0  0  0  0  0  0
    3.2106   -2.7805    0.0000 C   0  0  0  0  0  0  0  0  0  0  0  0
    4.0133   -3.2439    0.0000 C   0  0  0  0  0  0  0  0  0  0  0  0
    4.8159   -2.7805    0.0000 C   0  0  0  0  0  0  0  0  0  0  0  0
    4.8159   -1.8537    0.0000 C   0  0  0  0  0  0  0  0  0  0  0  0
   -0.8027   -4.1707    0.0000 C   0  0  0  0  0  0  0  0  0  0  0  0
   -1.6053   -4.6341    0.0000 C   0  0  0  0  0  0  0  0  0  0  0  0
   -2.4080   -4.1707    0.0000 C   0  0  0  0  0  0  0  0  0  0  0  0
   -2.4080   -3.2439    0.0000 C   0  0  0  0  0  0  0  0  0  0  0  0
   -0.8027   -0.4634    0.0000 C   0  0  0  0  0  0  0  0  0  0  0  0
    0.0000    0.0000    0.0000 C   0  0  0  0  0  0  0  0  0  0  0  0
  1 33  1  0  0  0  0
  1  2  1  0  0  0  0
  2  3  1  0  0  0  0
  3  4  1  0  0  0  0
  4  5  1  0  0  0  0
  4 32  1  0  0  0  0
  5  6  1  0  0  0  0
  5 12  1  0  0  0  0
  6 11  1  0  0  0  0
  6  7  1  0  0  0  0
  7  8  1  0  0  0  0
  8  9  1  0  0  0  0
  9 10  1  0  0  0  0
 10 11  1  0  0  0  0
 12 31  2  0  0  0  0
 12 13  1  0  0  0  0
 13 14  1  0  0  0  0
 13 28  2  0  0  0  0
 14 23  2  0  0  0  0
 14 15  1  0  0  0  0
 15 20  2  0  0  0  0
 15 16  1  0  0  0  0
 16 17  2  0  0  0  0
 16 21  1  0  0  0  0
 17 18  1  0  0  0  0
 18 19  2  0  0  0  0
 19 20  1  0  0  0  0
 21 22  2  0  0  0  0
 22 27  1  0  0  0  0
 22 23  1  0  0  0  0
 23 24  1  0  0  0  0
 24 25  1  0  0  0  0
 25 26  1  0  0  0  0
 26 27  1  0  0  0  0
 28 29  1  0  0  0  0
 29 30  2  0  0  0  0
 30 31  1  0  0  0  0
 32 33  1  0  0  0  0
M  END
> <NMREDATA_VERSION>
1.1

> <NMREDATA_LEVEL>
0

> <NMREDATA_SOLVENT>
CDCl3

> <NMREDATA_FORMULA>
C32H39P

> <NMREDATA_SMILES>
C1CCC(CC1)P(c1ccccc1c1c2CCCCc2cc2c1cccc2)C1CCCCC1

> <NMREDATA_ASSIGNMENT>
P5, -10.40, 5

> <NMREDATA_1D_31P>
Larmor=162
-10.40, L=P5

$$$$
