
 OpenBabel06112616462D

 16 17  0  0  0  0  0  0  0  0999 V2000
    1.1248    0.4659    0.0000 O   0  0  0  0  0  0  0  0  0  0  0  0
    0.8660   -0.5000    0.0000 P   0  0  0  0  0  0  0  0  0  0  0  0
    1.6594   -1.1088    0.0000 O   0  0  0  0  0  0  0  0  0  0  0  0
    2.5833   -0.7261    0.0000 C   0  0  0  0  0  0  0  0  0  0  0  0
    3.3766   -1.3348    0.0000 C   0  0  0  0  0  0  0  0  0  0  0  0
    4.3005   -0.9522    0.0000 C   0  0  0  0  0  0  0  0  0  0  0  0
    4.4310    0.0393    0.0000 C   0  0  0  0  0  0  0  0  0  0  0  0
    5.3549    0.4220    0.0000 C   0  0  0  0  0  0  0  0  0  0  0  0
    6.1483   -0.1868    0.0000 C   0  0  0  0  0  0  0  0  0  0  0  0
    6.0177   -1.1782    0.0000 C   0  0  0  0  0  0  0  0  0  0  0  0
    5.0938   -1.5609    0.0000 C   0  0  0  0  0  0  0  0  0  0  0  0
    0.8660   -1.5000    0.0000 O   0  0  0  0  0  0  0  0  0  0  0  0
    0.0000   -2.0000    0.0000 C   0  0  0  0  0  0  0  0  0  0  0  0
   -0.8660   -1.5000    0.0000 C   0  0  0  0  0  0  0  0  0  0  0  0
   -0.8660   -0.5000    0.0000 C   0  0  0  0  0  0  0  0  0  0  0  0
    0.0000    0.0000    0.0000 O   0  0  0  0  0  0  0  0  0  0  0  0
  1  2  2  0  0  0  0
  2 16  1  0  0  0  0
  2  3  1  0  0  0  0
  2 12  1  0  0  0  0
  3  4  1  0  0  0  0
  4  5  1  0  0  0  0
  5  6  1  0  0  0  0
  6 11  2  0  0  0  0
  6  7  1  0  0  0  0
  7  8  2  0  0  0  0
  8  9  1  0  0  0  0
  9 10  2  0  0  0  0
 10 11  1  0  0  0  0
 12 13  1  0  0  0  0
 13 14  1  0  0  0  0
 14 15  1  0  0  0  0
 15 16  1  0  0  0  0
M  END
> <NMREDATA_VERSION>
1.1

> <NMREDATA_LEVEL>
0

> <NMREDATA_SOLVENT>
CDCl3

> <NMREDATA_FORMULA>
C11H15O4P

> <NMREDATA_SMILES>
O=P1(OCCc2ccccc2)OCCCO1

> <NMREDATA_ASSIGNMENT>
P2, -6.99, 2

> <NMREDATA_1D_31P>
Larmor=162
-6.99, L=P2

$$$$
