
 OpenBabel06112616462D

 39 45  0  0  0  0  0  0  0  0999 V2000
    3.9179   -0.0004    0.0000 C   0  0  0  0  0  0  0  0  0  0  0  0
    2.9386   -0.0003    0.0000 C   0  0  0  0  0  0  0  0  0  0  0  0
    2.4490    0.8484    0.0000 C   0  0  0  0  0  0  0  0  0  0  0  0
    1.4691    0.8485    0.0000 C   0  0  0  0  0  0  0  0  0  0  0  0
    0.9793    0.0000    0.0000 C   0  0  0  0  0  0  0  0  0  0  0  0
    0.0000    0.0000    0.0000 P   0  0  0  0  0  0  0  0  0  0  0  0
    0.3983    0.8946    0.0000 O   0  0  0  0  0  0  0  0  0  0  0  0
   -0.8946    0.3983    0.0000 C   0  0  0  0  0  0  0  0  0  0  0  0
   -1.6869   -0.1773    0.0000 C   0  0  0  0  0  0  0  0  0  0  0  0
   -2.5815    0.2210    0.0000 C   0  0  0  0  0  0  0  0  0  0  0  0
   -2.6839    1.1949    0.0000 C   0  0  0  0  0  0  0  0  0  0  0  0
   -1.8916    1.7706    0.0000 C   0  0  0  0  0  0  0  0  0  0  0  0
   -0.9970    1.3722    0.0000 C   0  0  0  0  0  0  0  0  0  0  0  0
   -0.3983   -0.8946    0.0000 C   0  0  0  0  0  0  0  0  0  0  0  0
    0.1773   -1.6869    0.0000 C   0  0  0  0  0  0  0  0  0  0  0  0
   -0.2210   -2.5815    0.0000 C   0  0  0  0  0  0  0  0  0  0  0  0
   -1.1949   -2.6839    0.0000 C   0  0  0  0  0  0  0  0  0  0  0  0
   -1.7706   -1.8916    0.0000 C   0  0  0  0  0  0  0  0  0  0  0  0
   -0.7223   -1.8916    0.0000 C   0  0  0  0  0  0  0  0  0  0  0  0
    1.4689   -0.8481    0.0000 C   0  0  0  0  0  0  0  0  0  0  0  0
    0.9788   -1.6967    0.0000 C   0  0  0  0  0  0  0  0  0  0  0  0
    1.4687   -2.5454    0.0000 C   0  0  0  0  0  0  0  0  0  0  0  0
    2.4486   -2.5455    0.0000 C   0  0  0  0  0  0  0  0  0  0  0  0
    2.9622   -3.4353    0.0000 F   0  0  0  0  0  0  0  0  0  0  0  0
    2.9386   -1.6969    0.0000 C   0  0  0  0  0  0  0  0  0  0  0  0
    2.4488   -0.8483    0.0000 C   0  0  0  0  0  0  0  0  0  0  0  0
    0.9795    1.6966    0.0000 C   0  0  0  0  0  0  0  0  0  0  0  0
   -0.0205    1.6966    0.0000 O   0  0  0  0  0  0  0  0  0  0  0  0
    1.4693    2.5451    0.0000 C   0  0  0  0  0  0  0  0  0  0  0  0
    0.9797    3.3938    0.0000 C   0  0  0  0  0  0  0  0  0  0  0  0
    1.4695    4.2418    0.0000 C   0  0  0  0  0  0  0  0  0  0  0  0
    2.4494    4.2416    0.0000 C   0  0  0  0  0  0  0  0  0  0  0  0
    2.9390    3.3935    0.0000 C   0  0  0  0  0  0  0  0  0  0  0  0
    2.4492    2.5450    0.0000 C   0  0  0  0  0  0  0  0  0  0  0  0
    4.3163    0.8942    0.0000 C   0  0  0  0  0  0  0  0  0  0  0  0
    5.2902    0.9964    0.0000 C   0  0  0  0  0  0  0  0  0  0  0  0
    5.8658    0.2041    0.0000 C   0  0  0  0  0  0  0  0  0  0  0  0
    5.4673   -0.6905    0.0000 C   0  0  0  0  0  0  0  0  0  0  0  0
    4.4934   -0.7927    0.0000 C   0  0  0  0  0  0  0  0  0  0  0  0
  1 39  2  0  0  0  0
  1  2  1  0  0  0  0
  1 35  1  0  0  0  0
  2 26  2  0  0  0  0
  2  3  1  0  0  0  0
  3 34  1  0  0  0  0
  3  4  2  0  0  0  0
  4  5  1  0  0  0  0
  4 27  1  0  0  0  0
  5  6  1  0  0  0  0
  5 20  2  0  0  0  0
  6  7  2  0  0  0  0
  6  8  1  0  0  0  0
  6 14  1  0  0  0  0
  8 13  2  0  0  0  0
  8  9  1  0  0  0  0
  9 10  2  0  0  0  0
 10 11  1  0  0  0  0
 11 12  2  0  0  0  0
 12 13  1  0  0  0  0
 14 19  2  0  0  0  0
 14 15  1  0  0  0  0
 15 16  2  0  0  0  0
 16 17  1  0  0  0  0
 17 18  2  0  0  0  0
 18 19  1  0  0  0  0
 20 26  1  0  0  0  0
 20 21  1  0  0  0  0
 21 22  2  0  0  0  0
 22 23  1  0  0  0  0
 23 24  1  0  0  0  0
 23 25  2  0  0  0  0
 25 26  1  0  0  0  0
 27 28  2  0  0  0  0
 27 29  1  0  0  0  0
 29 34  2  0  0  0  0
 29 30  1  0  0  0  0
 30 31  2  0  0  0  0
 31 32  1  0  0  0  0
 32 33  2  0  0  0  0
 33 34  1  0  0  0  0
 35 36  2  0  0  0  0
 36 37  1  0  0  0  0
 37 38  2  0  0  0  0
 38 39  1  0  0  0  0
M  END
> <NMREDATA_VERSION>
1.1

> <NMREDATA_LEVEL>
0

> <NMREDATA_SOLVENT>
CDCl3

> <NMREDATA_FORMULA>
C35H22FO2P

> <NMREDATA_SMILES>
Fc1ccc2c(c1)c(c1ccccc1)c1-c3ccccc3C(=O)c1c2P(=O)(c1ccccc1)c1ccccc1

> <NMREDATA_ASSIGNMENT>
P6, 33.70, 6

> <NMREDATA_1D_31P>
Larmor=202
33.70, L=P6

$$$$
