
 OpenBabel06112616472D

 65 74  0  0  0  0  0  0  0  0999 V2000
    0.9487   -0.9487    0.0000 O   0  0  0  0  0  0  0  0  0  0  0  0
    1.7703   -1.4231    0.0000 C   0  0  0  0  0  0  0  0  0  0  0  0
    2.5919   -0.9487    0.0000 C   0  0  0  0  0  0  0  0  0  0  0  0
    3.4136   -1.4231    0.0000 C   0  0  0  0  0  0  0  0  0  0  0  0
    3.4136   -2.3718    0.0000 C   0  0  0  0  0  0  0  0  0  0  0  0
    2.5919   -2.8462    0.0000 C   0  0  0  0  0  0  0  0  0  0  0  0
    1.7703   -2.3718    0.0000 C   0  0  0  0  0  0  0  0  0  0  0  0
    0.1271   -3.3205    0.0000 C   0  0  0  0  0  0  0  0  0  0  0  0
   -0.6945   -2.8462    0.0000 C   0  0  0  0  0  0  0  0  0  0  0  0
   -0.6945   -1.8974    0.0000 P   0  0  0  0  0  0  0  0  0  0  0  0
   -1.5161   -1.4231    0.0000 C   0  0  0  0  0  0  0  0  0  0  0  0
   -1.5161   -0.4744    0.0000 C   0  0  0  0  0  0  0  0  0  0  0  0
   -2.3377    0.0000    0.0000 C   0  0  0  0  0  0  0  0  0  0  0  0
   -2.3377    0.9487    0.0000 C   0  0  0  0  0  0  0  0  0  0  0  0
   -1.5161    1.4231    0.0000 C   0  0  0  0  0  0  0  0  0  0  0  0
   -1.5161    2.3718    0.0000 C   0  0  0  0  0  0  0  0  0  0  0  0
   -2.3377    2.8462    0.0000 C   0  0  0  0  0  0  0  0  0  0  0  0
   -3.1594    2.3718    0.0000 C   0  0  0  0  0  0  0  0  0  0  0  0
   -3.1594    1.4231    0.0000 C   0  0  0  0  0  0  0  0  0  0  0  0
   -3.1594   -0.4744    0.0000 C   0  0  0  0  0  0  0  0  0  0  0  0
   -3.1594   -1.4231    0.0000 C   0  0  0  0  0  0  0  0  0  0  0  0
   -3.9810   -1.8974    0.0000 C   0  0  0  0  0  0  0  0  0  0  0  0
   -4.8026   -1.4231    0.0000 C   0  0  0  0  0  0  0  0  0  0  0  0
   -5.6242   -1.8974    0.0000 C   0  0  0  0  0  0  0  0  0  0  0  0
   -5.6242   -2.8462    0.0000 C   0  0  0  0  0  0  0  0  0  0  0  0
   -4.8026   -3.3205    0.0000 C   0  0  0  0  0  0  0  0  0  0  0  0
   -3.9810   -2.8462    0.0000 C   0  0  0  0  0  0  0  0  0  0  0  0
   -2.3377   -1.8974    0.0000 C   0  0  0  0  0  0  0  0  0  0  0  0
    2.5919    0.0000    0.0000 C   0  0  0  0  0  0  0  0  0  0  0  0
    3.4136   -0.4744    0.0000 C   0  0  0  0  0  0  0  0  0  0  0  0
    4.2352    0.0000    0.0000 C   0  0  0  0  0  0  0  0  0  0  0  0
    5.0568   -0.4744    0.0000 C   0  0  0  0  0  0  0  0  0  0  0  0
    5.0568   -1.4231    0.0000 C   0  0  0  0  0  0  0  0  0  0  0  0
    5.8784   -1.8974    0.0000 C   0  0  0  0  0  0  0  0  0  0  0  0
    6.7000   -1.4231    0.0000 C   0  0  0  0  0  0  0  0  0  0  0  0
    6.7000   -0.4744    0.0000 C   0  0  0  0  0  0  0  0  0  0  0  0
    5.8784    0.0000    0.0000 C   0  0  0  0  0  0  0  0  0  0  0  0
    4.2352    0.9487    0.0000 C   0  0  0  0  0  0  0  0  0  0  0  0
    3.4136    1.4231    0.0000 C   0  0  0  0  0  0  0  0  0  0  0  0
    3.4136    2.3718    0.0000 C   0  0  0  0  0  0  0  0  0  0  0  0
    4.2352    2.8462    0.0000 C   0  0  0  0  0  0  0  0  0  0  0  0
    4.2352    3.7949    0.0000 C   0  0  0  0  0  0  0  0  0  0  0  0
    3.4136    4.2692    0.0000 C   0  0  0  0  0  0  0  0  0  0  0  0
    2.5919    3.7949    0.0000 C   0  0  0  0  0  0  0  0  0  0  0  0
    2.5919    2.8462    0.0000 C   0  0  0  0  0  0  0  0  0  0  0  0
    2.5919    0.9487    0.0000 C   0  0  0  0  0  0  0  0  0  0  0  0
   -1.5161   -3.3205    0.0000 C   0  0  0  0  0  0  0  0  0  0  0  0
   -1.5161   -4.2692    0.0000 C   0  0  0  0  0  0  0  0  0  0  0  0
   -0.6945   -4.7436    0.0000 C   0  0  0  0  0  0  0  0  0  0  0  0
    0.1271   -4.2692    0.0000 C   0  0  0  0  0  0  0  0  0  0  0  0
    0.9487   -4.7436    0.0000 C   0  0  0  0  0  0  0  0  0  0  0  0
    0.9487   -5.6923    0.0000 C   0  0  0  0  0  0  0  0  0  0  0  0
    0.1271   -6.1667    0.0000 C   0  0  0  0  0  0  0  0  0  0  0  0
   -0.6945   -5.6923    0.0000 C   0  0  0  0  0  0  0  0  0  0  0  0
    2.5919   -3.7949    0.0000 C   0  0  0  0  0  0  0  0  0  0  0  0
    3.4136   -4.2692    0.0000 C   0  0  0  0  0  0  0  0  0  0  0  0
    4.2352   -3.7949    0.0000 C   0  0  0  0  0  0  0  0  0  0  0  0
    4.2352   -2.8462    0.0000 C   0  0  0  0  0  0  0  0  0  0  0  0
    0.9487    0.0000    0.0000 S   0  0  0  0  0  0  0  0  0  0  0  0
    1.8974    0.0000    0.0000 O   0  0  0  0  0  0  0  0  0  0  0  0
    0.9487    0.9487    0.0000 O   0  0  0  0  0  0  0  0  0  0  0  0
    0.0000    0.0000    0.0000 C   0  0  0  0  0  0  0  0  0  0  0  0
   -0.8216   -0.4744    0.0000 F   0  0  0  0  0  0  0  0  0  0  0  0
    0.0000   -0.9487    0.0000 F   0  0  0  0  0  0  0  0  0  0  0  0
   -0.4744    0.8216    0.0000 F   0  0  0  0  0  0  0  0  0  0  0  0
  1  2  1  0  0  0  0
  1 59  1  0  0  0  0
  2  7  2  0  0  0  0
  2  3  1  0  0  0  0
  3  4  2  0  0  0  0
  4  5  1  0  0  0  0
  5 58  1  0  0  0  0
  5  6  2  0  0  0  0
  6  7  1  0  0  0  0
  6 55  1  0  0  0  0
  7  8  1  0  0  0  0
  8 50  2  0  0  0  0
  8  9  1  0  0  0  0
  9 10  1  0  0  0  0
  9 47  2  0  0  0  0
 10 11  1  0  0  0  0
 10 29  1  0  0  0  0
 11 28  2  0  0  0  0
 11 12  1  0  0  0  0
 12 13  2  0  0  0  0
 13 14  1  0  0  0  0
 13 20  1  0  0  0  0
 14 19  2  0  0  0  0
 14 15  1  0  0  0  0
 15 16  2  0  0  0  0
 16 17  1  0  0  0  0
 17 18  2  0  0  0  0
 18 19  1  0  0  0  0
 20 21  2  0  0  0  0
 21 22  1  0  0  0  0
 21 28  1  0  0  0  0
 22 27  2  0  0  0  0
 22 23  1  0  0  0  0
 23 24  2  0  0  0  0
 24 25  1  0  0  0  0
 25 26  2  0  0  0  0
 26 27  1  0  0  0  0
 29 46  2  0  0  0  0
 29 30  1  0  0  0  0
 30 31  2  0  0  0  0
 31 32  1  0  0  0  0
 31 38  1  0  0  0  0
 32 37  2  0  0  0  0
 32 33  1  0  0  0  0
 33 34  2  0  0  0  0
 34 35  1  0  0  0  0
 35 36  2  0  0  0  0
 36 37  1  0  0  0  0
 38 39  2  0  0  0  0
 39 40  1  0  0  0  0
 39 46  1  0  0  0  0
 40 45  2  0  0  0  0
 40 41  1  0  0  0  0
 41 42  2  0  0  0  0
 42 43  1  0  0  0  0
 43 44  2  0  0  0  0
 44 45  1  0  0  0  0
 47 48  1  0  0  0  0
 48 49  2  0  0  0  0
 49 54  1  0  0  0  0
 49 50  1  0  0  0  0
 50 51  1  0  0  0  0
 51 52  1  0  0  0  0
 52 53  1  0  0  0  0
 53 54  1  0  0  0  0
 55 56  1  0  0  0  0
 56 57  1  0  0  0  0
 57 58  1  0  0  0  0
 59 60  2  0  0  0  0
 59 61  2  0  0  0  0
 59 62  1  0  0  0  0
 62 63  1  0  0  0  0
 62 64  1  0  0  0  0
 62 65  1  0  0  0  0
M  END
> <NMREDATA_VERSION>
1.1

> <NMREDATA_LEVEL>
0

> <NMREDATA_FORMULA>
C57H46F3O3PS

> <NMREDATA_SMILES>
FC(S(=O)(=O)Oc1ccc2c(c1c1c(ccc3c1CCCC3)P(c1cc(cc(c1)c1ccccc1)c1ccccc1)c1cc(cc(c1)c1ccccc1)c1ccccc1)CCCC2)(F)F

> <NMREDATA_ASSIGNMENT>
P10, -11.40, 10

> <NMREDATA_1D_31P>
Larmor=162
-11.40, L=P10

$$$$
