
 OpenBabel06112616472D

 39 43  0  0  0  0  0  0  0  0999 V2000
   -1.5618   -3.4205    0.0000 C   0  0  0  0  0  0  0  0  0  0  0  0
   -0.7154   -3.9091    0.0000 O   0  0  0  0  0  0  0  0  0  0  0  0
    0.1309   -3.4205    0.0000 C   0  0  0  0  0  0  0  0  0  0  0  0
    0.1309   -2.4432    0.0000 C   0  0  0  0  0  0  0  0  0  0  0  0
    0.9773   -1.9545    0.0000 C   0  0  0  0  0  0  0  0  0  0  0  0
    0.9773    0.0000    0.0000 P   0  0  2  0  0  0  0  0  0  0  0  0
    1.9545    0.0000    0.0000 O   0  0  0  0  0  0  0  0  0  0  0  0
    2.4432    0.8463    0.0000 C   0  0  0  0  0  0  0  0  0  0  0  0
    3.4205    0.8463    0.0000 C   0  0  0  0  0  0  0  0  0  0  0  0
    3.9091    0.0000    0.0000 C   0  0  0  0  0  0  0  0  0  0  0  0
    4.8864    0.0000    0.0000 C   0  0  0  0  0  0  0  0  0  0  0  0
    5.3750   -0.8463    0.0000 C   0  0  0  0  0  0  0  0  0  0  0  0
    6.3523   -0.8463    0.0000 C   0  0  0  0  0  0  0  0  0  0  0  0
    6.8409    0.0000    0.0000 C   0  0  0  0  0  0  0  0  0  0  0  0
    6.3523    0.8463    0.0000 C   0  0  0  0  0  0  0  0  0  0  0  0
    5.3750    0.8463    0.0000 C   0  0  0  0  0  0  0  0  0  0  0  0
    4.8864   -1.6927    0.0000 C   0  0  0  0  0  0  0  0  0  0  0  0
    3.9091   -1.6927    0.0000 C   0  0  0  0  0  0  0  0  0  0  0  0
    3.4205   -0.8463    0.0000 C   0  0  0  0  0  0  0  0  0  0  0  0
    2.4432   -0.8463    0.0000 O   0  0  0  0  0  0  0  0  0  0  0  0
    3.9091    1.6927    0.0000 C   0  0  0  0  0  0  0  0  0  0  0  0
    3.4205    2.5390    0.0000 C   0  0  0  0  0  0  0  0  0  0  0  0
    3.9091    3.3854    0.0000 C   0  0  0  0  0  0  0  0  0  0  0  0
    4.8864    3.3854    0.0000 C   0  0  0  0  0  0  0  0  0  0  0  0
    5.3750    2.5390    0.0000 C   0  0  0  0  0  0  0  0  0  0  0  0
    4.8864    1.6927    0.0000 C   0  0  0  0  0  0  0  0  0  0  0  0
    2.4432    2.5390    0.0000 C   0  0  0  0  0  0  0  0  0  0  0  0
    1.9545    1.6927    0.0000 C   0  0  0  0  0  0  0  0  0  0  0  0
    0.9773    0.9773    0.0000 O   0  0  0  0  0  0  0  0  0  0  0  0
    0.0000    0.0000    0.0000 N   0  0  0  0  0  0  0  0  0  0  0  0
   -0.4886    0.8463    0.0000 C   0  0  0  0  0  0  0  0  0  0  0  0
    0.0000    1.6927    0.0000 C   0  0  0  0  0  0  0  0  0  0  0  0
   -1.4659    0.8463    0.0000 C   0  0  0  0  0  0  0  0  0  0  0  0
   -0.4886   -0.8463    0.0000 C   0  0  0  0  0  0  0  0  0  0  0  0
   -1.4659   -0.8463    0.0000 C   0  0  0  0  0  0  0  0  0  0  0  0
    0.0000   -1.6927    0.0000 C   0  0  0  0  0  0  0  0  0  0  0  0
    1.8236   -2.4432    0.0000 C   0  0  0  0  0  0  0  0  0  0  0  0
    1.8236   -3.4205    0.0000 C   0  0  0  0  0  0  0  0  0  0  0  0
    0.9773   -3.9091    0.0000 C   0  0  0  0  0  0  0  0  0  0  0  0
  1  2  1  0  0  0  0
  2  3  1  0  0  0  0
  3 39  2  0  0  0  0
  3  4  1  0  0  0  0
  4  5  2  0  0  0  0
  5  6  1  0  0  0  0
  5 37  1  0  0  0  0
  6  7  1  0  0  0  0
  6 29  2  1  0  0  0
  6 30  1  0  0  0  0
  7  8  1  0  0  0  0
  8 28  2  0  0  0  0
  8  9  1  0  0  0  0
  9 10  1  0  0  0  0
  9 21  2  0  0  0  0
 10 19  2  0  0  0  0
 10 11  1  0  0  0  0
 11 16  2  0  0  0  0
 11 12  1  0  0  0  0
 12 13  2  0  0  0  0
 12 17  1  0  0  0  0
 13 14  1  0  0  0  0
 14 15  2  0  0  0  0
 15 16  1  0  0  0  0
 17 18  2  0  0  0  0
 18 19  1  0  0  0  0
 19 20  1  0  0  0  0
 21 26  1  0  0  0  0
 21 22  1  0  0  0  0
 22 23  1  0  0  0  0
 22 27  2  0  0  0  0
 23 24  2  0  0  0  0
 24 25  1  0  0  0  0
 25 26  2  0  0  0  0
 27 28  1  0  0  0  0
 30 31  1  0  0  0  0
 30 34  1  0  0  0  0
 31 32  1  0  0  0  0
 31 33  1  0  0  0  0
 34 35  1  0  0  0  0
 34 36  1  0  0  0  0
 37 38  2  0  0  0  0
 38 39  1  0  0  0  0
M  END
> <NMREDATA_VERSION>
1.1

> <NMREDATA_LEVEL>
0

> <NMREDATA_SOLVENT>
CDCl3

> <NMREDATA_FORMULA>
C33H34NO4P

> <NMREDATA_SMILES>
COc1cccc(c1)[P@](=O)(N(C(C)C)C(C)C)Oc1ccc2c(c1c1c(O)ccc3c1cccc3)cccc2

> <NMREDATA_ASSIGNMENT>
P6, 20.60, 6

> <NMREDATA_1D_31P>
Larmor=243
20.60, L=P6

$$$$
