
 OpenBabel06112616452D

 61 69  0  0  0  0  0  0  0  0999 V2000
    0.5377   -2.0246    0.0000 C   0  0  0  0  0  0  0  0  0  0  0  0
    0.8282   -2.9665    0.0000 C   0  0  0  0  0  0  0  0  0  0  0  0
    0.1578   -3.6891    0.0000 C   0  0  0  0  0  0  0  0  0  0  0  0
    1.7892   -3.1859    0.0000 C   0  0  0  0  0  0  0  0  0  0  0  0
    2.0798   -4.1278    0.0000 C   0  0  0  0  0  0  0  0  0  0  0  0
    3.0408   -4.3472    0.0000 C   0  0  0  0  0  0  0  0  0  0  0  0
    3.3313   -5.2891    0.0000 C   0  0  0  0  0  0  0  0  0  0  0  0
    2.6608   -6.0117    0.0000 C   0  0  0  0  0  0  0  0  0  0  0  0
    2.9514   -6.9536    0.0000 C   0  0  0  0  0  0  0  0  0  0  0  0
    3.9124   -7.1729    0.0000 C   0  0  0  0  0  0  0  0  0  0  0  0
    4.5828   -6.4503    0.0000 C   0  0  0  0  0  0  0  0  0  0  0  0
    4.2923   -5.5084    0.0000 C   0  0  0  0  0  0  0  0  0  0  0  0
    3.7112   -3.6246    0.0000 C   0  0  0  0  0  0  0  0  0  0  0  0
    3.4207   -2.6826    0.0000 C   0  0  0  0  0  0  0  0  0  0  0  0
    4.0911   -1.9601    0.0000 C   0  0  0  0  0  0  0  0  0  0  0  0
    3.8006   -1.0181    0.0000 C   0  0  0  0  0  0  0  0  0  0  0  0
    5.0521   -2.1794    0.0000 C   0  0  0  0  0  0  0  0  0  0  0  0
    2.4597   -2.4633    0.0000 C   0  0  0  0  0  0  0  0  0  0  0  0
    2.1691   -1.5214    0.0000 C   0  0  0  0  0  0  0  0  0  0  0  0
    2.8396   -0.7988    0.0000 C   0  0  0  0  0  0  0  0  0  0  0  0
    2.5490    0.1431    0.0000 C   0  0  0  0  0  0  0  0  0  0  0  0
    3.2195    0.8657    0.0000 C   0  0  0  0  0  0  0  0  0  0  0  0
    2.9289    1.8076    0.0000 C   0  0  0  0  0  0  0  0  0  0  0  0
    1.9679    2.0270    0.0000 C   0  0  0  0  0  0  0  0  0  0  0  0
    1.2975    1.3044    0.0000 C   0  0  0  0  0  0  0  0  0  0  0  0
    1.5880    0.3625    0.0000 C   0  0  0  0  0  0  0  0  0  0  0  0
    0.9176   -0.3601    0.0000 C   0  0  0  0  0  0  0  0  0  0  0  0
    1.2081   -1.3020    0.0000 C   0  0  0  0  0  0  0  0  0  0  0  0
    0.6528   -2.1165    0.0000 O   0  0  0  0  0  0  0  0  0  0  0  0
   -0.3301   -2.1901    0.0000 P   0  0  0  0  0  0  0  0  0  0  0  0
   -0.1832   -3.1648    0.0000 O   0  0  0  0  0  0  0  0  0  0  0  0
   -1.1008   -2.8047    0.0000 O   0  0  0  0  0  0  0  0  0  0  0  0
   -1.0006   -1.4676    0.0000 O   0  0  0  0  0  0  0  0  0  0  0  0
   -0.8537   -0.4929    0.0000 C   0  0  0  0  0  0  0  0  0  0  0  0
   -1.7073    0.0000    0.0000 C   0  0  0  0  0  0  0  0  0  0  0  0
   -3.4146   -0.9857    0.0000 C   0  0  0  0  0  0  0  0  0  0  0  0
   -4.2683   -0.4929    0.0000 C   0  0  0  0  0  0  0  0  0  0  0  0
   -4.2683    0.4929    0.0000 C   0  0  0  0  0  0  0  0  0  0  0  0
   -5.1219    0.9857    0.0000 C   0  0  0  0  0  0  0  0  0  0  0  0
   -3.4146    0.9857    0.0000 C   0  0  0  0  0  0  0  0  0  0  0  0
   -5.1219   -0.9857    0.0000 C   0  0  0  0  0  0  0  0  0  0  0  0
   -5.1219   -1.9714    0.0000 C   0  0  0  0  0  0  0  0  0  0  0  0
   -5.9756   -2.4643    0.0000 C   0  0  0  0  0  0  0  0  0  0  0  0
   -6.8292   -1.9714    0.0000 C   0  0  0  0  0  0  0  0  0  0  0  0
   -7.6829   -2.4643    0.0000 C   0  0  0  0  0  0  0  0  0  0  0  0
   -7.6829   -3.4500    0.0000 C   0  0  0  0  0  0  0  0  0  0  0  0
   -6.8292   -3.9429    0.0000 C   0  0  0  0  0  0  0  0  0  0  0  0
   -5.9756   -3.4500    0.0000 C   0  0  0  0  0  0  0  0  0  0  0  0
   -4.2683   -2.4643    0.0000 C   0  0  0  0  0  0  0  0  0  0  0  0
   -3.4146   -1.9714    0.0000 C   0  0  0  0  0  0  0  0  0  0  0  0
   -2.5610   -2.4643    0.0000 C   0  0  0  0  0  0  0  0  0  0  0  0
   -1.7073   -1.9714    0.0000 C   0  0  0  0  0  0  0  0  0  0  0  0
   -2.5610   -3.4500    0.0000 C   0  0  0  0  0  0  0  0  0  0  0  0
   -1.7073    0.9857    0.0000 C   0  0  0  0  0  0  0  0  0  0  0  0
   -0.8537    1.4786    0.0000 C   0  0  0  0  0  0  0  0  0  0  0  0
   -0.8537    2.4643    0.0000 C   0  0  0  0  0  0  0  0  0  0  0  0
    0.0000    2.9571    0.0000 C   0  0  0  0  0  0  0  0  0  0  0  0
    0.8537    2.4643    0.0000 C   0  0  0  0  0  0  0  0  0  0  0  0
    0.8537    1.4786    0.0000 C   0  0  0  0  0  0  0  0  0  0  0  0
    0.0000    0.9857    0.0000 C   0  0  0  0  0  0  0  0  0  0  0  0
    0.0000    0.0000    0.0000 C   0  0  0  0  0  0  0  0  0  0  0  0
  1  2  1  0  0  0  0
  2  3  1  0  0  0  0
  2  4  1  0  0  0  0
  4 18  2  0  0  0  0
  4  5  1  0  0  0  0
  5  6  2  0  0  0  0
  6  7  1  0  0  0  0
  6 13  1  0  0  0  0
  7 12  2  0  0  0  0
  7  8  1  0  0  0  0
  8  9  2  0  0  0  0
  9 10  1  0  0  0  0
 10 11  2  0  0  0  0
 11 12  1  0  0  0  0
 13 14  2  0  0  0  0
 14 15  1  0  0  0  0
 14 18  1  0  0  0  0
 15 16  1  0  0  0  0
 15 17  1  0  0  0  0
 18 19  1  0  0  0  0
 19 28  2  0  0  0  0
 19 20  1  0  0  0  0
 20 21  2  0  0  0  0
 21 26  1  0  0  0  0
 21 22  1  0  0  0  0
 22 23  2  0  0  0  0
 23 24  1  0  0  0  0
 24 25  2  0  0  0  0
 25 26  1  0  0  0  0
 26 27  2  0  0  0  0
 27 61  1  0  0  0  0
 27 28  1  0  0  0  0
 28 29  1  0  0  0  0
 29 30  1  0  0  0  0
 30 31  2  0  0  0  0
 30 32  1  0  0  0  0
 30 33  1  0  0  0  0
 33 34  1  0  0  0  0
 34 61  2  0  0  0  0
 34 35  1  0  0  0  0
 35 36  1  0  0  0  0
 35 54  2  0  0  0  0
 36 50  2  0  0  0  0
 36 37  1  0  0  0  0
 37 38  1  0  0  0  0
 37 41  2  0  0  0  0
 38 39  1  0  0  0  0
 38 40  1  0  0  0  0
 41 42  1  0  0  0  0
 42 43  1  0  0  0  0
 42 49  2  0  0  0  0
 43 48  2  0  0  0  0
 43 44  1  0  0  0  0
 44 45  2  0  0  0  0
 45 46  1  0  0  0  0
 46 47  2  0  0  0  0
 47 48  1  0  0  0  0
 49 50  1  0  0  0  0
 50 51  1  0  0  0  0
 51 52  1  0  0  0  0
 51 53  1  0  0  0  0
 54 55  1  0  0  0  0
 55 60  2  0  0  0  0
 55 56  1  0  0  0  0
 56 57  2  0  0  0  0
 57 58  1  0  0  0  0
 58 59  2  0  0  0  0
 59 60  1  0  0  0  0
 60 61  1  0  0  0  0
M  END
> <NMREDATA_VERSION>
1.1

> <NMREDATA_LEVEL>
0

> <NMREDATA_SOLVENT>
CD2Cl2

> <NMREDATA_FORMULA>
C56H53O4P

> <NMREDATA_SMILES>
CC(c1cc(cc(c1c1cc2ccccc2c2-c3c(OP(=O)(Oc12)O)c(cc1c3cccc1)c1c(cc(cc1C(C)C)c1ccccc1)C(C)C)C(C)C)c1ccccc1)C

> <NMREDATA_ASSIGNMENT>
P30, 2.94, 30

> <NMREDATA_1D_31P>
Larmor=203
2.94, L=P30

$$$$
