
 OpenBabel06112616452D

 29 33  0  0  1  0  0  0  0  0999 V2000
   -2.1201   -0.2999    0.0000 O    0  0  0  0  0  0  0  0  0  0  0  0
   -1.1201   -0.2999    0.0000 P    0  0  0  0  0  0  0  0  0  0  0  0
   -1.1201    0.7001    0.0000 O    0  0  0  0  0  0  0  0  0  0  0  0
   -0.2541    1.2001    0.0000 C    0  0  3  0  0  0  0  0  0  0  0  0
    0.6795    1.5584    0.0000 C    0  0  3  0  0  0  0  0  0  0  0  0
    0.6272    2.5571    0.0000 C    0  0  0  0  0  0  0  0  0  0  0  0
   -0.3387    2.8159    0.0000 C    0  0  3  0  0  0  0  0  0  0  0  0
    0.4603    2.9424    0.0000 C    0  0  0  0  0  0  0  0  0  0  0  0
    0.9694    2.3137    0.0000 C    0  0  0  0  0  0  0  0  0  0  0  0
   -0.8834    1.9772    0.0000 C    0  0  3  0  0  0  0  0  0  0  0  0
   -1.8820    1.9249    0.0000 Cl   0  0  0  0  0  0  0  0  0  0  0  0
    0.8510    0.4913    0.0000 C    0  0  0  0  0  0  0  0  0  0  0  0
    1.7020    0.0000    0.0000 C    0  0  0  0  0  0  0  0  0  0  0  0
    1.7020   -0.9826    0.0000 C    0  0  0  0  0  0  0  0  0  0  0  0
    0.8510   -1.4740    0.0000 C    0  0  0  0  0  0  0  0  0  0  0  0
    0.0000   -0.9826    0.0000 C    0  0  0  0  0  0  0  0  0  0  0  0
    0.0000    0.0000    0.0000 C    0  0  0  0  0  0  0  0  0  0  0  0
   -0.1201   -0.2999    0.0000 C    0  0  0  0  0  0  0  0  0  0  0  0
    0.3799   -1.1660    0.0000 C    0  0  0  0  0  0  0  0  0  0  0  0
    1.3799   -1.1660    0.0000 C    0  0  0  0  0  0  0  0  0  0  0  0
    1.8799   -0.2999    0.0000 C    0  0  0  0  0  0  0  0  0  0  0  0
    1.3799    0.5661    0.0000 C    0  0  0  0  0  0  0  0  0  0  0  0
    0.3799    0.5661    0.0000 C    0  0  0  0  0  0  0  0  0  0  0  0
   -1.1201   -1.2999    0.0000 C    0  0  0  0  0  0  0  0  0  0  0  0
   -1.9861   -1.7999    0.0000 C    0  0  0  0  0  0  0  0  0  0  0  0
   -1.9861   -2.7999    0.0000 C    0  0  0  0  0  0  0  0  0  0  0  0
   -1.1201   -3.2999    0.0000 C    0  0  0  0  0  0  0  0  0  0  0  0
   -0.2541   -2.7999    0.0000 C    0  0  0  0  0  0  0  0  0  0  0  0
   -0.2541   -1.7999    0.0000 C    0  0  0  0  0  0  0  0  0  0  0  0
  1  2  2  0  0  0  0
  2  3  1  0  0  0  0
  2 18  1  0  0  0  0
  2 24  1  0  0  0  0
  3  4  1  0  0  0  0
  4 10  1  0  0  0  0
  4  5  1  0  0  0  0
  4 12  1  0  0  0  0
  5  9  1  0  0  0  0
  5  6  1  0  0  0  0
  6  7  1  0  0  0  0
  7  8  1  0  0  0  0
  7 10  1  0  0  0  0
  8  9  1  0  0  0  0
 10 11  1  0  0  0  0
 12 17  2  0  0  0  0
 12 13  1  0  0  0  0
 13 14  2  0  0  0  0
 14 15  1  0  0  0  0
 15 16  2  0  0  0  0
 16 17  1  0  0  0  0
 18 23  2  0  0  0  0
 18 19  1  0  0  0  0
 19 20  2  0  0  0  0
 20 21  1  0  0  0  0
 21 22  2  0  0  0  0
 22 23  1  0  0  0  0
 24 29  2  0  0  0  0
 24 25  1  0  0  0  0
 25 26  2  0  0  0  0
 26 27  1  0  0  0  0
 27 28  2  0  0  0  0
 28 29  1  0  0  0  0
M  END
> <NMREDATA_VERSION>
1.1

> <NMREDATA_LEVEL>
0

> <NMREDATA_SOLVENT>
CDCl3

> <NMREDATA_FORMULA>
C25H24ClO2P

> <NMREDATA_SMILES>
ClC1C2CCC(C1(OP(=O)(c1ccccc1)c1ccccc1)c1ccccc1)C2

> <NMREDATA_ASSIGNMENT>
P2, 26.40, 2

> <NMREDATA_1D_31P>
Larmor=162
26.40, L=P2

$$$$
