
 OpenBabel06112616472D

 37 42  0  0  0  0  0  0  0  0999 V2000
   -0.2528    1.0100    0.0000 O   0  0  0  0  0  0  0  0  0  0  0  0
    0.0000    1.9535    0.0000 P   0  0  3  0  0  0  0  0  0  0  0  0
   -1.5498    3.1427    0.0000 C   0  0  0  0  0  0  0  0  0  0  0  0
   -2.4522    2.7689    0.0000 C   0  0  0  0  0  0  0  0  0  0  0  0
   -3.2271    3.3635    0.0000 C   0  0  0  0  0  0  0  0  0  0  0  0
   -3.0996    4.3319    0.0000 C   0  0  0  0  0  0  0  0  0  0  0  0
   -2.1972    4.7057    0.0000 C   0  0  0  0  0  0  0  0  0  0  0  0
   -1.4223    4.1111    0.0000 C   0  0  0  0  0  0  0  0  0  0  0  0
    0.0000    2.9302    0.0000 C   0  0  0  0  0  0  0  0  0  0  0  0
   -0.8459    3.4186    0.0000 C   0  0  0  0  0  0  0  0  0  0  0  0
   -0.8459    4.3953    0.0000 C   0  0  0  0  0  0  0  0  0  0  0  0
    0.0000    4.8837    0.0000 C   0  0  0  0  0  0  0  0  0  0  0  0
    0.8459    4.3953    0.0000 C   0  0  0  0  0  0  0  0  0  0  0  0
    0.8459    3.4186    0.0000 C   0  0  0  0  0  0  0  0  0  0  0  0
    1.6918    2.9302    0.0000 C   0  0  0  0  0  0  0  0  0  0  0  0
    1.6918    1.9535    0.0000 C   0  0  0  0  0  0  0  0  0  0  0  0
    2.5377    1.4651    0.0000 C   0  0  0  0  0  0  0  0  0  0  0  0
    3.3835    1.9535    0.0000 C   0  0  0  0  0  0  0  0  0  0  0  0
    4.2294    1.4651    0.0000 O   0  0  0  0  0  0  0  0  0  0  0  0
    5.0753    1.9535    0.0000 C   0  0  0  0  0  0  0  0  0  0  0  0
    5.9212    1.4651    0.0000 C   0  0  0  0  0  0  0  0  0  0  0  0
    6.7671    1.9535    0.0000 C   0  0  0  0  0  0  0  0  0  0  0  0
    7.6130    1.4651    0.0000 C   0  0  0  0  0  0  0  0  0  0  0  0
    7.6130    0.4884    0.0000 C   0  0  0  0  0  0  0  0  0  0  0  0
    6.7671    0.0000    0.0000 C   0  0  0  0  0  0  0  0  0  0  0  0
    5.9212    0.4884    0.0000 C   0  0  0  0  0  0  0  0  0  0  0  0
    0.8459    1.4651    0.0000 N   0  0  0  0  0  0  0  0  0  0  0  0
    0.8459    0.4884    0.0000 C   0  0  0  0  0  0  0  0  0  0  0  0
    1.6918    0.0000    0.0000 C   0  0  0  0  0  0  0  0  0  0  0  0
    1.6918   -0.9767    0.0000 C   0  0  0  0  0  0  0  0  0  0  0  0
    0.8459   -1.4651    0.0000 C   0  0  0  0  0  0  0  0  0  0  0  0
    0.0000   -0.9767    0.0000 C   0  0  0  0  0  0  0  0  0  0  0  0
   -0.8459   -1.4651    0.0000 C   0  0  0  0  0  0  0  0  0  0  0  0
   -1.6918   -0.9767    0.0000 C   0  0  0  0  0  0  0  0  0  0  0  0
   -1.6918    0.0000    0.0000 C   0  0  0  0  0  0  0  0  0  0  0  0
   -0.8459    0.4884    0.0000 N   0  0  0  0  0  0  0  0  0  0  0  0
    0.0000    0.0000    0.0000 C   0  0  0  0  0  0  0  0  0  0  0  0
  1  2  2  0  0  0  0
  2 27  1  0  0  0  0
  2  3  1  0  0  0  0
  2  9  1  0  0  0  0
  3  8  2  0  0  0  0
  3  4  1  0  0  0  0
  4  5  2  0  0  0  0
  5  6  1  0  0  0  0
  6  7  2  0  0  0  0
  7  8  1  0  0  0  0
  9 14  2  0  0  0  0
  9 10  1  0  0  0  0
 10 11  2  0  0  0  0
 11 12  1  0  0  0  0
 12 13  2  0  0  0  0
 13 14  1  0  0  0  0
 14 15  1  0  0  0  0
 15 16  2  0  0  0  0
 16 17  1  0  0  0  0
 16 27  1  0  0  0  0
 17 18  1  0  0  0  0
 18 19  1  0  0  0  0
 19 20  1  0  0  0  0
 20 21  1  0  0  0  0
 21 26  2  0  0  0  0
 21 22  1  0  0  0  0
 22 23  2  0  0  0  0
 23 24  1  0  0  0  0
 24 25  2  0  0  0  0
 25 26  1  0  0  0  0
 27 28  1  0  0  0  0
 28 37  2  0  0  0  0
 28 29  1  0  0  0  0
 29 30  2  0  0  0  0
 30 31  1  0  0  0  0
 31 32  2  0  0  0  0
 32 37  1  0  0  0  0
 32 33  1  0  0  0  0
 33 34  2  0  0  0  0
 34 35  1  0  0  0  0
 35 36  2  0  0  0  0
 36 37  1  0  0  0  0
M  END
> <NMREDATA_VERSION>
1.1

> <NMREDATA_LEVEL>
0

> <NMREDATA_SOLVENT>
CDCl3

> <NMREDATA_FORMULA>
C32H27N2O2P

> <NMREDATA_SMILES>
O=P1(c2ccccc2)c2ccccc2C=C(N1c1cccc2c1nccc2)CCOCc1ccccc1

> <NMREDATA_ASSIGNMENT>
P2, 18.20, 2

> <NMREDATA_1D_31P>
Larmor=162
18.20, L=P2

$$$$
