
 OpenBabel06112616482D

 41 45  0  0  1  0  0  0  0  0999 V2000
    3.5199    1.4674    0.0000 O   0  0  0  0  0  0  0  0  0  0  0  0
    4.3671    1.9565    0.0000 C   0  0  0  0  0  0  0  0  0  0  0  0
    5.2143    1.4674    0.0000 C   0  0  0  0  0  0  0  0  0  0  0  0
    2.6727    1.9565    0.0000 C   0  0  0  0  0  0  0  0  0  0  0  0
    0.9783    0.9783    0.0000 C   0  0  3  0  0  0  0  0  0  0  0  0
    0.9783    0.0000    0.0000 P   0  0  0  0  0  0  0  0  0  0  0  0
    1.9565    0.0000    0.0000 C   0  0  0  0  0  0  0  0  0  0  0  0
    2.4457   -0.8472    0.0000 C   0  0  0  0  0  0  0  0  0  0  0  0
    3.4239   -0.8472    0.0000 C   0  0  0  0  0  0  0  0  0  0  0  0
    3.9130    0.0000    0.0000 C   0  0  0  0  0  0  0  0  0  0  0  0
    3.4239    0.8472    0.0000 C   0  0  0  0  0  0  0  0  0  0  0  0
    2.4457    0.8472    0.0000 C   0  0  0  0  0  0  0  0  0  0  0  0
    0.9783   -0.9783    0.0000 C   0  0  0  0  0  0  0  0  0  0  0  0
    0.1311   -1.4674    0.0000 C   0  0  0  0  0  0  0  0  0  0  0  0
    0.1311   -2.4457    0.0000 C   0  0  0  0  0  0  0  0  0  0  0  0
    0.9783   -2.9348    0.0000 C   0  0  0  0  0  0  0  0  0  0  0  0
    1.8255   -2.4457    0.0000 C   0  0  0  0  0  0  0  0  0  0  0  0
    1.8255   -1.4674    0.0000 C   0  0  0  0  0  0  0  0  0  0  0  0
    0.0000    0.0000    0.0000 O   0  0  0  0  0  0  0  0  0  0  0  0
    0.1311    1.4674    0.0000 C   0  0  0  0  0  0  0  0  0  0  0  0
    0.1311    2.4457    0.0000 C   0  0  0  0  0  0  0  0  0  0  0  0
    0.9783    2.9348    0.0000 C   0  0  0  0  0  0  0  0  0  0  0  0
    0.9783    3.9130    0.0000 C   0  0  0  0  0  0  0  0  0  0  0  0
    1.8255    4.4022    0.0000 C   0  0  0  0  0  0  0  0  0  0  0  0
    2.6727    3.9130    0.0000 C   0  0  0  0  0  0  0  0  0  0  0  0
    2.6727    2.9348    0.0000 C   0  0  0  0  0  0  0  0  0  0  0  0
    1.8255    2.4457    0.0000 C   0  0  0  0  0  0  0  0  0  0  0  0
   -0.7161    2.9348    0.0000 C   0  0  0  0  0  0  0  0  0  0  0  0
   -1.5633    2.4457    0.0000 C   0  0  0  0  0  0  0  0  0  0  0  0
   -2.4105    2.9348    0.0000 C   0  0  0  0  0  0  0  0  0  0  0  0
   -2.4105    3.9130    0.0000 C   0  0  0  0  0  0  0  0  0  0  0  0
   -1.5633    4.4022    0.0000 C   0  0  0  0  0  0  0  0  0  0  0  0
   -0.7161    3.9130    0.0000 C   0  0  0  0  0  0  0  0  0  0  0  0
   -0.7161    0.9783    0.0000 C   0  0  0  0  0  0  0  0  0  0  0  0
   -1.5633    0.4891    0.0000 C   0  0  0  0  0  0  0  0  0  0  0  0
   -2.4105    0.0000    0.0000 C   0  0  0  0  0  0  0  0  0  0  0  0
   -2.4105   -0.9783    0.0000 C   0  0  0  0  0  0  0  0  0  0  0  0
   -3.2577   -1.4674    0.0000 C   0  0  0  0  0  0  0  0  0  0  0  0
   -4.1049   -0.9783    0.0000 C   0  0  0  0  0  0  0  0  0  0  0  0
   -4.1049    0.0000    0.0000 C   0  0  0  0  0  0  0  0  0  0  0  0
   -3.2577    0.4891    0.0000 C   0  0  0  0  0  0  0  0  0  0  0  0
  1  2  1  0  0  0  0
  1  4  1  0  0  0  0
  2  3  1  0  0  0  0
  4  5  1  0  0  0  0
  5  6  1  0  0  0  0
  5 20  1  0  0  0  0
  6  7  1  0  0  0  0
  6 13  1  0  0  0  0
  6 19  2  0  0  0  0
  7 12  2  0  0  0  0
  7  8  1  0  0  0  0
  8  9  2  0  0  0  0
  9 10  1  0  0  0  0
 10 11  2  0  0  0  0
 11 12  1  0  0  0  0
 13 18  2  0  0  0  0
 13 14  1  0  0  0  0
 14 15  2  0  0  0  0
 15 16  1  0  0  0  0
 16 17  2  0  0  0  0
 17 18  1  0  0  0  0
 20 21  2  0  0  0  0
 20 34  1  0  0  0  0
 21 22  1  0  0  0  0
 21 28  1  0  0  0  0
 22 27  2  0  0  0  0
 22 23  1  0  0  0  0
 23 24  2  0  0  0  0
 24 25  1  0  0  0  0
 25 26  2  0  0  0  0
 26 27  1  0  0  0  0
 28 33  2  0  0  0  0
 28 29  1  0  0  0  0
 29 30  2  0  0  0  0
 30 31  1  0  0  0  0
 31 32  2  0  0  0  0
 32 33  1  0  0  0  0
 34 35  3  0  0  0  0
 35 36  1  0  0  0  0
 36 41  2  0  0  0  0
 36 37  1  0  0  0  0
 37 38  2  0  0  0  0
 38 39  1  0  0  0  0
 39 40  2  0  0  0  0
 40 41  1  0  0  0  0
M  END
> <NMREDATA_VERSION>
1.1

> <NMREDATA_LEVEL>
0

> <NMREDATA_SOLVENT>
CDCl3

> <NMREDATA_FORMULA>
C38H33O2P

> <NMREDATA_SMILES>
CCOCC(P(=O)(c1ccccc1)c1ccccc1)C(=C(c1ccccc1)c1ccccc1)C#Cc1ccccc1

> <NMREDATA_ASSIGNMENT>
P6, 31.05, 6

> <NMREDATA_1D_31P>
Larmor=162
31.05, L=P6

$$$$
