
 OpenBabel06112616482D

 29 32  0  0  0  0  0  0  0  0999 V2000
    1.0000    0.0000    0.0000 P   0  0  0  0  0  0  0  0  0  0  0  0
    1.0000   -1.0000    0.0000 O   0  0  0  0  0  0  0  0  0  0  0  0
    2.0000    0.0000    0.0000 C   0  0  0  0  0  0  0  0  0  0  0  0
    2.5000    0.8660    0.0000 C   0  0  0  0  0  0  0  0  0  0  0  0
    3.5000    0.8660    0.0000 C   0  0  0  0  0  0  0  0  0  0  0  0
    4.0878    0.0570    0.0000 C   0  0  0  0  0  0  0  0  0  0  0  0
    5.0388    0.3660    0.0000 C   0  0  0  0  0  0  0  0  0  0  0  0
    5.9049   -0.1340    0.0000 C   0  0  0  0  0  0  0  0  0  0  0  0
    6.7709    0.3660    0.0000 C   0  0  0  0  0  0  0  0  0  0  0  0
    6.7709    1.3660    0.0000 C   0  0  0  0  0  0  0  0  0  0  0  0
    5.9049    1.8660    0.0000 C   0  0  0  0  0  0  0  0  0  0  0  0
    5.0388    1.3660    0.0000 C   0  0  0  0  0  0  0  0  0  0  0  0
    4.0878    1.6750    0.0000 N   0  0  0  0  0  0  0  0  0  0  0  0
    3.7788    2.6261    0.0000 C   0  0  0  0  0  0  0  0  0  0  0  0
    4.4479    3.3692    0.0000 C   0  0  0  0  0  0  0  0  0  0  0  0
    4.1389    4.3203    0.0000 C   0  0  0  0  0  0  0  0  0  0  0  0
    3.1607    4.5282    0.0000 C   0  0  0  0  0  0  0  0  0  0  0  0
    2.4916    3.7851    0.0000 C   0  0  0  0  0  0  0  0  0  0  0  0
    1.5135    3.9930    0.0000 C   0  0  0  0  0  0  0  0  0  0  0  0
    0.8443    3.2498    0.0000 C   0  0  0  0  0  0  0  0  0  0  0  0
    1.1533    2.2988    0.0000 C   0  0  0  0  0  0  0  0  0  0  0  0
    2.1315    2.0909    0.0000 N   0  0  0  0  0  0  0  0  0  0  0  0
    2.8006    2.8340    0.0000 C   0  0  0  0  0  0  0  0  0  0  0  0
    1.0000    1.0000    0.0000 O   0  0  0  0  0  0  0  0  0  0  0  0
    0.1340    1.5000    0.0000 C   0  0  0  0  0  0  0  0  0  0  0  0
    0.1340    2.5000    0.0000 C   0  0  0  0  0  0  0  0  0  0  0  0
    0.0000    0.0000    0.0000 O   0  0  0  0  0  0  0  0  0  0  0  0
   -0.5000    0.8660    0.0000 C   0  0  0  0  0  0  0  0  0  0  0  0
   -1.5000    0.8660    0.0000 C   0  0  0  0  0  0  0  0  0  0  0  0
  1  2  2  0  0  0  0
  1  3  1  0  0  0  0
  1 24  1  0  0  0  0
  1 27  1  0  0  0  0
  3  4  2  0  0  0  0
  4  5  1  0  0  0  0
  5 13  1  0  0  0  0
  5  6  2  0  0  0  0
  6  7  1  0  0  0  0
  7 12  2  0  0  0  0
  7  8  1  0  0  0  0
  8  9  2  0  0  0  0
  9 10  1  0  0  0  0
 10 11  2  0  0  0  0
 11 12  1  0  0  0  0
 12 13  1  0  0  0  0
 13 14  1  0  0  0  0
 14 23  2  0  0  0  0
 14 15  1  0  0  0  0
 15 16  2  0  0  0  0
 16 17  1  0  0  0  0
 17 18  2  0  0  0  0
 18 23  1  0  0  0  0
 18 19  1  0  0  0  0
 19 20  2  0  0  0  0
 20 21  1  0  0  0  0
 21 22  2  0  0  0  0
 22 23  1  0  0  0  0
 24 25  1  0  0  0  0
 25 26  1  0  0  0  0
 27 28  1  0  0  0  0
 28 29  1  0  0  0  0
M  END
> <NMREDATA_VERSION>
1.1

> <NMREDATA_LEVEL>
0

> <NMREDATA_FORMULA>
C23H23N2O3P

> <NMREDATA_SMILES>
CCOP(=O)(/C=C/c1cc2c(n1c1cccc3c1nccc3)cccc2)OCC

> <NMREDATA_ASSIGNMENT>
P1, 19.40, 1

> <NMREDATA_1D_31P>
Larmor=161
19.40, L=P1

$$$$
