
 OpenBabel06112616432D

 36 41  0  0  1  0  0  0  0  0999 V2000
   -0.8912    0.6594    0.0000 C    0  0  0  0  0  0  0  0  0  0  0  0
   -1.5000   -0.1340    0.0000 C    0  0  3  0  0  0  0  0  0  0  0  0
   -1.8827   -1.0579    0.0000 C    0  0  0  0  0  0  0  0  0  0  0  0
   -2.8741   -1.1884    0.0000 N    0  0  0  0  0  0  0  0  0  0  0  0
   -3.4829   -0.3950    0.0000 C    0  0  0  0  0  0  0  0  0  0  0  0
   -4.4743   -0.5256    0.0000 N    0  0  0  0  0  0  0  0  0  0  0  0
   -4.8570   -1.4494    0.0000 C    0  0  0  0  0  0  0  0  0  0  0  0
   -4.2483   -2.2428    0.0000 C    0  0  0  0  0  0  0  0  0  0  0  0
   -3.2568   -2.1123    0.0000 C    0  0  0  0  0  0  0  0  0  0  0  0
   -2.6481   -2.9056    0.0000 O    0  0  0  0  0  0  0  0  0  0  0  0
   -4.6309   -3.1667    0.0000 C    0  0  0  0  0  0  0  0  0  0  0  0
   -5.6224   -3.2972    0.0000 C    0  0  0  0  0  0  0  0  0  0  0  0
   -6.2311   -2.5038    0.0000 C    0  0  0  0  0  0  0  0  0  0  0  0
   -7.2226   -2.6344    0.0000 Br   0  0  0  0  0  0  0  0  0  0  0  0
   -5.8485   -1.5800    0.0000 C    0  0  0  0  0  0  0  0  0  0  0  0
   -3.1002    0.5289    0.0000 C    0  0  0  0  0  0  0  0  0  0  0  0
   -2.1088    0.6594    0.0000 C    0  0  0  0  0  0  0  0  0  0  0  0
   -1.7261    1.5833    0.0000 C    0  0  0  0  0  0  0  0  0  0  0  0
   -2.3348    2.3766    0.0000 C    0  0  0  0  0  0  0  0  0  0  0  0
   -3.3263    2.2461    0.0000 C    0  0  0  0  0  0  0  0  0  0  0  0
   -3.7090    1.3222    0.0000 C    0  0  0  0  0  0  0  0  0  0  0  0
   -1.0000   -1.0000    0.0000 C    0  0  0  0  0  0  0  0  0  0  0  0
    0.0000   -1.0000    0.0000 P    0  0  0  0  0  0  0  0  0  0  0  0
    0.0000   -2.0000    0.0000 C    0  0  0  0  0  0  0  0  0  0  0  0
    0.8660   -2.5000    0.0000 C    0  0  0  0  0  0  0  0  0  0  0  0
    0.8660   -3.5000    0.0000 C    0  0  0  0  0  0  0  0  0  0  0  0
    0.0000   -4.0000    0.0000 C    0  0  0  0  0  0  0  0  0  0  0  0
   -0.8660   -3.5000    0.0000 C    0  0  0  0  0  0  0  0  0  0  0  0
   -0.8660   -2.5000    0.0000 C    0  0  0  0  0  0  0  0  0  0  0  0
    1.0000   -1.0000    0.0000 C    0  0  0  0  0  0  0  0  0  0  0  0
    1.5000   -0.1340    0.0000 C    0  0  0  0  0  0  0  0  0  0  0  0
    2.5000   -0.1340    0.0000 C    0  0  0  0  0  0  0  0  0  0  0  0
    3.0000   -1.0000    0.0000 C    0  0  0  0  0  0  0  0  0  0  0  0
    2.5000   -1.8660    0.0000 C    0  0  0  0  0  0  0  0  0  0  0  0
    1.5000   -1.8660    0.0000 C    0  0  0  0  0  0  0  0  0  0  0  0
    0.0000    0.0000    0.0000 O    0  0  0  0  0  0  0  0  0  0  0  0
  1  2  1  0  0  0  0
  2 17  1  0  0  0  0
  2  3  1  0  0  0  0
  2 22  1  0  0  0  0
  3  4  1  0  0  0  0
  4  9  1  0  0  0  0
  4  5  1  0  0  0  0
  5  6  2  0  0  0  0
  5 16  1  0  0  0  0
  6  7  1  0  0  0  0
  7 15  2  0  0  0  0
  7  8  1  0  0  0  0
  8  9  1  0  0  0  0
  8 11  2  0  0  0  0
  9 10  2  0  0  0  0
 11 12  1  0  0  0  0
 12 13  2  0  0  0  0
 13 14  1  0  0  0  0
 13 15  1  0  0  0  0
 16 21  2  0  0  0  0
 16 17  1  0  0  0  0
 17 18  2  0  0  0  0
 18 19  1  0  0  0  0
 19 20  2  0  0  0  0
 20 21  1  0  0  0  0
 22 23  1  0  0  0  0
 23 24  1  0  0  0  0
 23 30  1  0  0  0  0
 23 36  2  0  0  0  0
 24 29  2  0  0  0  0
 24 25  1  0  0  0  0
 25 26  2  0  0  0  0
 26 27  1  0  0  0  0
 27 28  2  0  0  0  0
 28 29  1  0  0  0  0
 30 35  2  0  0  0  0
 30 31  1  0  0  0  0
 31 32  2  0  0  0  0
 32 33  1  0  0  0  0
 33 34  2  0  0  0  0
 34 35  1  0  0  0  0
M  END
> <NMREDATA_VERSION>
1.1

> <NMREDATA_LEVEL>
0

> <NMREDATA_SOLVENT>
CDCl3

> <NMREDATA_FORMULA>
C30H24BrN2O2P

> <NMREDATA_SMILES>
Brc1ccc2c(c1)nc1-c3ccccc3C(Cn1c2=O)(C)CP(=O)(c1ccccc1)c1ccccc1

> <NMREDATA_ASSIGNMENT>
P23, 27.28, 23

> <NMREDATA_1D_31P>
Larmor=162
27.28, L=P23

$$$$
