
 OpenBabel06112616482D

 40 43  0  0  1  0  0  0  0  0999 V2000
   10.5837   -0.4893    0.0000 Br   0  5  0  0  0  0  0  0  0  0  0  0
    4.3612   -2.3190    0.0000 O    0  0  0  0  0  0  0  0  0  0  0  0
    3.5690   -1.8616    0.0000 C    0  0  0  0  0  0  0  0  0  0  0  0
    5.1535   -1.8616    0.0000 C    0  0  0  0  0  0  0  0  0  0  0  0
    5.9458   -2.3190    0.0000 C    0  0  0  0  0  0  0  0  0  0  0  0
    5.9458   -4.1486    0.0000 P    0  0  0  0  0  4  0  0  0  0  0  0
    7.7754   -4.1486    0.0000 C    0  0  0  0  0  0  0  0  0  0  0  0
    8.2328   -3.3564    0.0000 C    0  0  0  0  0  0  0  0  0  0  0  0
    7.7754   -2.5641    0.0000 O    0  0  0  0  0  0  0  0  0  0  0  0
    6.8606   -2.5641    0.0000 C    0  0  0  0  0  0  0  0  0  0  0  0
    9.1476   -3.3564    0.0000 C    0  0  0  0  0  0  0  0  0  0  0  0
    9.6051   -4.1486    0.0000 C    0  0  0  0  0  0  0  0  0  0  0  0
    9.1476   -4.9409    0.0000 C    0  0  0  0  0  0  0  0  0  0  0  0
    8.2328   -4.9409    0.0000 C    0  0  0  0  0  0  0  0  0  0  0  0
    5.9458   -5.0635    0.0000 C    0  0  0  0  0  0  0  0  0  0  0  0
    5.1535   -5.5209    0.0000 C    0  0  0  0  0  0  0  0  0  0  0  0
    4.3612   -5.0635    0.0000 O    0  0  0  0  0  0  0  0  0  0  0  0
    4.3612   -4.1486    0.0000 C    0  0  0  0  0  0  0  0  0  0  0  0
    5.1535   -6.4357    0.0000 C    0  0  0  0  0  0  0  0  0  0  0  0
    5.9458   -6.8931    0.0000 C    0  0  0  0  0  0  0  0  0  0  0  0
    6.7380   -6.4357    0.0000 C    0  0  0  0  0  0  0  0  0  0  0  0
    6.7380   -5.5209    0.0000 C    0  0  0  0  0  0  0  0  0  0  0  0
    5.0309   -4.1486    0.0000 C    0  0  0  0  0  0  0  0  0  0  0  0
    4.5735   -3.3564    0.0000 C    0  0  0  0  0  0  0  0  0  0  0  0
    3.6587   -3.3564    0.0000 C    0  0  0  0  0  0  0  0  0  0  0  0
    3.2013   -4.1486    0.0000 C    0  0  0  0  0  0  0  0  0  0  0  0
    3.6587   -4.9409    0.0000 C    0  0  0  0  0  0  0  0  0  0  0  0
    2.0742   -5.8557    0.0000 B    0  0  0  0  0  0  0  0  0  0  0  0
    1.2818   -5.3980    0.0000 C    0  0  3  0  0  0  0  0  0  0  0  0
    0.4894   -5.8555    0.0000 C    0  0  0  0  0  0  0  0  0  0  0  0
    0.4893   -6.7707    0.0000 C    0  0  0  0  0  0  0  0  0  0  0  0
    1.2818   -7.2280    0.0000 C    0  0  0  0  0  0  0  0  0  0  0  0
    2.0742   -6.7705    0.0000 C    0  0  3  0  0  0  0  0  0  0  0  0
    2.8664   -6.3132    0.0000 C    0  0  0  0  0  0  0  0  0  0  0  0
    2.8666   -5.3982    0.0000 C    0  0  0  0  0  0  0  0  0  0  0  0
    2.0740   -4.9407    0.0000 C    0  0  0  0  0  0  0  0  0  0  0  0
    6.7380   -1.8616    0.0000 C    0  0  0  0  0  0  0  0  0  0  0  0
    6.7380   -0.9468    0.0000 C    0  0  0  0  0  0  0  0  0  0  0  0
    5.9458   -0.4893    0.0000 C    0  0  0  0  0  0  0  0  0  0  0  0
    5.1535   -0.9468    0.0000 C    0  0  0  0  0  0  0  0  0  0  0  0
  2  3  1  0  0  0  0
  2  4  1  0  0  0  0
  4 40  2  0  0  0  0
  4  5  1  0  0  0  0
  5  6  1  0  0  0  0
  5 37  2  0  0  0  0
  6  7  1  0  0  0  0
  6 15  1  0  0  0  0
  6 23  1  0  0  0  0
  7 14  2  0  0  0  0
  7  8  1  0  0  0  0
  8  9  1  0  0  0  0
  8 11  2  0  0  0  0
  9 10  1  0  0  0  0
 11 12  1  0  0  0  0
 12 13  2  0  0  0  0
 13 14  1  0  0  0  0
 15 22  2  0  0  0  0
 15 16  1  0  0  0  0
 16 17  1  0  0  0  0
 16 19  2  0  0  0  0
 17 18  1  0  0  0  0
 19 20  1  0  0  0  0
 20 21  2  0  0  0  0
 21 22  1  0  0  0  0
 23 24  1  0  0  0  0
 24 25  1  0  0  0  0
 25 26  1  0  0  0  0
 26 27  1  0  0  0  0
 27 28  1  0  0  0  0
 28 33  1  0  0  0  0
 28 29  1  0  0  0  0
 29 36  1  0  0  0  0
 29 30  1  0  0  0  0
 30 31  1  0  0  0  0
 31 32  1  0  0  0  0
 32 33  1  0  0  0  0
 33 34  1  0  0  0  0
 34 35  1  0  0  0  0
 35 36  1  0  0  0  0
 37 38  1  0  0  0  0
 38 39  2  0  0  0  0
 39 40  1  0  0  0  0
M  END
> <NMREDATA_VERSION>
1.1

> <NMREDATA_LEVEL>
0

> <NMREDATA_SOLVENT>
CD2Cl2

> <NMREDATA_FORMULA>
C34H45BBrO3P

> <NMREDATA_SMILES>
COc1ccccc1P(c1ccccc1OC)(c1ccccc1OC)CCCCCB1C2CCCC1CCC2.Br

> <NMREDATA_ASSIGNMENT>
P6, 25.92, 6

> <NMREDATA_1D_31P>
Larmor=162
25.92, L=P6

$$$$
