
 OpenBabel06112616452D

 33 36  0  0  0  0  0  0  0  0999 V2000
    0.9730   -0.9730    0.0000 O   0  0  0  0  0  0  0  0  0  0  0  0
    0.9730    0.0000    0.0000 P   0  0  0  0  0  0  0  0  0  0  0  0
    1.9459    0.0000    0.0000 C   0  0  0  0  0  0  0  0  0  0  0  0
    2.4324    0.8426    0.0000 C   0  0  0  0  0  0  0  0  0  0  0  0
    3.4054    0.8426    0.0000 C   0  0  0  0  0  0  0  0  0  0  0  0
    3.8919    0.0000    0.0000 C   0  0  0  0  0  0  0  0  0  0  0  0
    3.4054   -0.8426    0.0000 C   0  0  0  0  0  0  0  0  0  0  0  0
    2.4324   -0.8426    0.0000 C   0  0  0  0  0  0  0  0  0  0  0  0
    0.9730    0.9730    0.0000 C   0  0  0  0  0  0  0  0  0  0  0  0
    0.1304    1.4595    0.0000 C   0  0  0  0  0  0  0  0  0  0  0  0
    0.1304    2.4324    0.0000 C   0  0  0  0  0  0  0  0  0  0  0  0
    0.9730    2.9189    0.0000 C   0  0  0  0  0  0  0  0  0  0  0  0
    1.8156    2.4324    0.0000 C   0  0  0  0  0  0  0  0  0  0  0  0
    1.8156    1.4595    0.0000 C   0  0  0  0  0  0  0  0  0  0  0  0
    0.0000    0.0000    0.0000 C   0  0  0  0  0  0  0  0  0  0  0  0
   -0.4865   -0.8426    0.0000 C   0  0  0  0  0  0  0  0  0  0  0  0
    0.3561   -1.3291    0.0000 C   0  0  0  0  0  0  0  0  0  0  0  0
    0.3561   -2.3021    0.0000 C   0  0  0  0  0  0  0  0  0  0  0  0
    1.1988   -2.7886    0.0000 C   0  0  0  0  0  0  0  0  0  0  0  0
    2.0414   -2.3021    0.0000 C   0  0  0  0  0  0  0  0  0  0  0  0
    2.0414   -1.3291    0.0000 C   0  0  0  0  0  0  0  0  0  0  0  0
    1.1988   -0.8426    0.0000 C   0  0  0  0  0  0  0  0  0  0  0  0
   -1.4595   -2.5279    0.0000 O   0  0  0  0  0  0  0  0  0  0  0  0
   -2.4324   -2.5279    0.0000 C   0  0  0  0  0  0  0  0  0  0  0  0
   -3.2751   -2.0414    0.0000 C   0  0  0  0  0  0  0  0  0  0  0  0
   -2.4324   -1.5549    0.0000 C   0  0  0  0  0  0  0  0  0  0  0  0
   -2.9189   -3.3705    0.0000 C   0  0  0  0  0  0  0  0  0  0  0  0
   -1.3291   -0.3561    0.0000 C   0  0  0  0  0  0  0  0  0  0  0  0
   -1.3291    0.6168    0.0000 C   0  0  0  0  0  0  0  0  0  0  0  0
   -2.1717    1.1033    0.0000 C   0  0  0  0  0  0  0  0  0  0  0  0
   -3.0143    0.6168    0.0000 C   0  0  0  0  0  0  0  0  0  0  0  0
   -3.0143   -0.3561    0.0000 C   0  0  0  0  0  0  0  0  0  0  0  0
   -2.1717   -0.8426    0.0000 C   0  0  0  0  0  0  0  0  0  0  0  0
  1  2  2  0  0  0  0
  2  3  1  0  0  0  0
  2  9  1  0  0  0  0
  2 15  1  0  0  0  0
  3  8  2  0  0  0  0
  3  4  1  0  0  0  0
  4  5  2  0  0  0  0
  5  6  1  0  0  0  0
  6  7  2  0  0  0  0
  7  8  1  0  0  0  0
  9 14  2  0  0  0  0
  9 10  1  0  0  0  0
 10 11  2  0  0  0  0
 11 12  1  0  0  0  0
 12 13  2  0  0  0  0
 13 14  1  0  0  0  0
 15 16  1  0  0  0  0
 16 17  1  0  0  0  0
 16 23  1  0  0  0  0
 16 28  1  0  0  0  0
 17 22  2  0  0  0  0
 17 18  1  0  0  0  0
 18 19  2  0  0  0  0
 19 20  1  0  0  0  0
 20 21  2  0  0  0  0
 21 22  1  0  0  0  0
 23 24  1  0  0  0  0
 24 25  1  0  0  0  0
 24 26  1  0  0  0  0
 24 27  1  0  0  0  0
 28 33  2  0  0  0  0
 28 29  1  0  0  0  0
 29 30  2  0  0  0  0
 30 31  1  0  0  0  0
 31 32  2  0  0  0  0
 32 33  1  0  0  0  0
M  END
> <NMREDATA_VERSION>
1.1

> <NMREDATA_LEVEL>
0

> <NMREDATA_SOLVENT>
CDCl3

> <NMREDATA_FORMULA>
C30H31O2P

> <NMREDATA_SMILES>
CC(OC(c1ccccc1)(c1ccccc1)CP(=O)(c1ccccc1)c1ccccc1)(C)C

> <NMREDATA_ASSIGNMENT>
P2, 24.92, 2

> <NMREDATA_1D_31P>
Larmor=162
24.92, L=P2

$$$$
