
 OpenBabel06112616442D

 34 37  0  0  1  0  0  0  0  0999 V2000
    2.9211   -2.6602    0.0000 C   0  0  0  0  0  0  0  0  0  0  0  0
    2.4342   -1.8169    0.0000 C   0  0  0  0  0  0  0  0  0  0  0  0
    2.9211   -0.9737    0.0000 C   0  0  0  0  0  0  0  0  0  0  0  0
    2.4342   -0.1304    0.0000 C   0  0  0  0  0  0  0  0  0  0  0  0
    2.9211    0.7128    0.0000 C   0  0  0  0  0  0  0  0  0  0  0  0
    1.4605   -0.1304    0.0000 C   0  0  0  0  0  0  0  0  0  0  0  0
    0.9737   -0.9737    0.0000 C   0  0  0  0  0  0  0  0  0  0  0  0
    0.0000   -0.9737    0.0000 P   0  0  0  0  0  0  0  0  0  0  0  0
    0.0000   -1.9474    0.0000 O   0  0  0  0  0  0  0  0  0  0  0  0
   -1.9474   -0.9737    0.0000 C   0  0  0  0  0  0  0  0  0  0  0  0
   -2.4342   -0.1304    0.0000 C   0  0  0  0  0  0  0  0  0  0  0  0
   -3.4079   -0.1304    0.0000 C   0  0  0  0  0  0  0  0  0  0  0  0
   -3.8947    0.7128    0.0000 C   0  0  0  0  0  0  0  0  0  0  0  0
   -3.8947   -0.9737    0.0000 C   0  0  0  0  0  0  0  0  0  0  0  0
   -3.4079   -1.8169    0.0000 C   0  0  0  0  0  0  0  0  0  0  0  0
   -3.8947   -2.6602    0.0000 C   0  0  0  0  0  0  0  0  0  0  0  0
   -2.4342   -1.8169    0.0000 C   0  0  0  0  0  0  0  0  0  0  0  0
    0.0000    0.0000    0.0000 C   0  0  1  0  0  0  0  0  0  0  0  0
    0.8432    0.4868    0.0000 C   0  0  0  0  0  0  0  0  0  0  0  0
    0.8432    1.4605    0.0000 C   0  0  0  0  0  0  0  0  0  0  0  0
    0.0000    1.9474    0.0000 O   0  0  0  0  0  0  0  0  0  0  0  0
    1.6865    1.9474    0.0000 C   0  0  0  0  0  0  0  0  0  0  0  0
    2.5760    1.5513    0.0000 N   0  0  0  0  0  0  0  0  0  0  0  0
    3.2275    2.2749    0.0000 C   0  0  0  0  0  0  0  0  0  0  0  0
    2.7407    3.1182    0.0000 C   0  0  0  0  0  0  0  0  0  0  0  0
    1.7882    2.9157    0.0000 N   0  0  0  0  0  0  0  0  0  0  0  0
    1.0647    3.5672    0.0000 C   0  0  0  0  0  0  0  0  0  0  0  0
   -0.8432    0.4868    0.0000 C   0  0  0  0  0  0  0  0  0  0  0  0
   -0.8432    1.4605    0.0000 C   0  0  0  0  0  0  0  0  0  0  0  0
   -1.6865    1.9474    0.0000 C   0  0  0  0  0  0  0  0  0  0  0  0
   -2.5297    1.4605    0.0000 C   0  0  0  0  0  0  0  0  0  0  0  0
   -2.5297    0.4868    0.0000 C   0  0  0  0  0  0  0  0  0  0  0  0
   -1.6865    0.0000    0.0000 C   0  0  0  0  0  0  0  0  0  0  0  0
    1.4605   -1.8169    0.0000 C   0  0  0  0  0  0  0  0  0  0  0  0
  1  2  1  0  0  0  0
  2 34  2  0  0  0  0
  2  3  1  0  0  0  0
  3  4  2  0  0  0  0
  4  5  1  0  0  0  0
  4  6  1  0  0  0  0
  6  7  2  0  0  0  0
  7  8  1  0  0  0  0
  7 34  1  0  0  0  0
  8  9  2  0  0  0  0
  8 10  1  0  0  0  0
  8 18  1  0  0  0  0
 10 17  2  0  0  0  0
 10 11  1  0  0  0  0
 11 12  2  0  0  0  0
 12 13  1  0  0  0  0
 12 14  1  0  0  0  0
 14 15  2  0  0  0  0
 15 16  1  0  0  0  0
 15 17  1  0  0  0  0
 18 19  1  6  0  0  0
 18 28  1  0  0  0  0
 19 20  1  0  0  0  0
 20 21  2  0  0  0  0
 20 22  1  0  0  0  0
 22 26  1  0  0  0  0
 22 23  2  0  0  0  0
 23 24  1  0  0  0  0
 24 25  2  0  0  0  0
 25 26  1  0  0  0  0
 26 27  1  0  0  0  0
 28 33  2  0  0  0  0
 28 29  1  0  0  0  0
 29 30  2  0  0  0  0
 30 31  1  0  0  0  0
 31 32  2  0  0  0  0
 32 33  1  0  0  0  0
M  END
> <NMREDATA_VERSION>
1.1

> <NMREDATA_LEVEL>
0

> <NMREDATA_SOLVENT>
CDCl3

> <NMREDATA_FORMULA>
C29H31N2O2P

> <NMREDATA_SMILES>
Cc1cc(C)cc(c1)P(=O)([C@H](c1ccccc1)CC(=O)c1nccn1C)c1cc(C)cc(c1)C

> <NMREDATA_ASSIGNMENT>
P8, 33.72, 8

> <NMREDATA_1D_31P>
Larmor=162
33.72, L=P8

$$$$
