
 OpenBabel06112616442D

 26 30  0  0  0  0  0  0  0  0999 V2000
    2.3660    0.6340    0.0000 C   0  0  0  0  0  0  0  0  0  0  0  0
    2.3660   -0.3660    0.0000 N   0  0  0  0  0  0  0  0  0  0  0  0
    3.2321   -0.8660    0.0000 C   0  0  0  0  0  0  0  0  0  0  0  0
    4.0981   -0.3660    0.0000 C   0  0  0  0  0  0  0  0  0  0  0  0
    4.9641   -0.8660    0.0000 C   0  0  0  0  0  0  0  0  0  0  0  0
    4.9641   -1.8660    0.0000 C   0  0  0  0  0  0  0  0  0  0  0  0
    5.8301   -2.3660    0.0000 C   0  0  0  0  0  0  0  0  0  0  0  0
    5.8301   -3.3660    0.0000 C   0  0  0  0  0  0  0  0  0  0  0  0
    4.9641   -3.8660    0.0000 C   0  0  0  0  0  0  0  0  0  0  0  0
    4.0981   -3.3660    0.0000 C   0  0  0  0  0  0  0  0  0  0  0  0
    4.0981   -2.3660    0.0000 C   0  0  0  0  0  0  0  0  0  0  0  0
    3.2321   -1.8660    0.0000 C   0  0  0  0  0  0  0  0  0  0  0  0
    2.3660   -2.3660    0.0000 C   0  0  0  0  0  0  0  0  0  0  0  0
    2.3660   -3.3660    0.0000 C   0  0  0  0  0  0  0  0  0  0  0  0
    1.5000   -3.8660    0.0000 C   0  0  0  0  0  0  0  0  0  0  0  0
    0.6340   -3.3660    0.0000 C   0  0  0  0  0  0  0  0  0  0  0  0
    0.6340   -2.3660    0.0000 C   0  0  0  0  0  0  0  0  0  0  0  0
    1.5000   -1.8660    0.0000 C   0  0  0  0  0  0  0  0  0  0  0  0
    1.5000   -0.8660    0.0000 P   0  0  1  0  0  0  0  0  0  0  0  0
    1.0000    0.0000    0.0000 O   0  0  0  0  0  0  0  0  0  0  0  0
    0.5000   -0.8660    0.0000 C   0  0  0  0  0  0  0  0  0  0  0  0
    0.0000   -1.7321    0.0000 C   0  0  0  0  0  0  0  0  0  0  0  0
   -1.0000   -1.7321    0.0000 C   0  0  0  0  0  0  0  0  0  0  0  0
   -1.5000   -0.8660    0.0000 C   0  0  0  0  0  0  0  0  0  0  0  0
   -1.0000    0.0000    0.0000 C   0  0  0  0  0  0  0  0  0  0  0  0
    0.0000    0.0000    0.0000 C   0  0  0  0  0  0  0  0  0  0  0  0
  1  2  1  0  0  0  0
  2 19  1  0  0  0  0
  2  3  1  0  0  0  0
  3 12  2  0  0  0  0
  3  4  1  0  0  0  0
  4  5  2  0  0  0  0
  5  6  1  0  0  0  0
  6 11  2  0  0  0  0
  6  7  1  0  0  0  0
  7  8  2  0  0  0  0
  8  9  1  0  0  0  0
  9 10  2  0  0  0  0
 10 11  1  0  0  0  0
 11 12  1  0  0  0  0
 12 13  1  0  0  0  0
 13 18  2  0  0  0  0
 13 14  1  0  0  0  0
 14 15  2  0  0  0  0
 15 16  1  0  0  0  0
 16 17  2  0  0  0  0
 17 18  1  0  0  0  0
 18 19  1  0  0  0  0
 19 20  2  1  0  0  0
 19 21  1  0  0  0  0
 21 26  2  0  0  0  0
 21 22  1  0  0  0  0
 22 23  2  0  0  0  0
 23 24  1  0  0  0  0
 24 25  2  0  0  0  0
 25 26  1  0  0  0  0
M  END
> <NMREDATA_VERSION>
1.1

> <NMREDATA_LEVEL>
0

> <NMREDATA_SOLVENT>
CDCl3

> <NMREDATA_FORMULA>
C23H18NOP

> <NMREDATA_SMILES>
CN1c2ccc3c(c2-c2c([P@]1(=O)c1ccccc1)cccc2)cccc3

> <NMREDATA_ASSIGNMENT>
P19, 19.05, 19

> <NMREDATA_1D_31P>
Larmor=162
19.05, L=P19

$$$$
