
 OpenBabel06112616472D

 25 26  0  0  0  0  0  0  0  0999 V2000
   -0.7049   -0.9630    0.0000 C    0  0  0  0  0  0  0  0  0  0  0  0
    0.1290   -1.4444    0.0000 C    0  0  0  0  0  0  0  0  0  0  0  0
    0.1290   -2.4074    0.0000 C    0  0  0  0  0  0  0  0  0  0  0  0
    0.9630   -0.9630    0.0000 O    0  0  0  0  0  0  0  0  0  0  0  0
    0.9630    0.0000    0.0000 P    0  0  0  0  0  0  0  0  0  0  0  0
    2.8889    0.0000    0.0000 C    0  0  0  0  0  0  0  0  0  0  0  0
    3.3704    0.8340    0.0000 C    0  0  0  0  0  0  0  0  0  0  0  0
    2.8889    1.6679    0.0000 Si   0  0  0  0  0  0  0  0  0  0  0  0
    3.7228    2.1494    0.0000 C    0  0  0  0  0  0  0  0  0  0  0  0
    3.7228    3.1123    0.0000 C    0  0  0  0  0  0  0  0  0  0  0  0
    4.5568    3.5938    0.0000 C    0  0  0  0  0  0  0  0  0  0  0  0
    5.3907    3.1123    0.0000 C    0  0  0  0  0  0  0  0  0  0  0  0
    5.3907    2.1494    0.0000 C    0  0  0  0  0  0  0  0  0  0  0  0
    4.5568    1.6679    0.0000 C    0  0  0  0  0  0  0  0  0  0  0  0
    2.4074    2.5019    0.0000 C    0  0  0  0  0  0  0  0  0  0  0  0
    2.0549    1.1864    0.0000 C    0  0  0  0  0  0  0  0  0  0  0  0
    4.3333    0.8340    0.0000 C    0  0  0  0  0  0  0  0  0  0  0  0
    4.8148    0.0000    0.0000 C    0  0  0  0  0  0  0  0  0  0  0  0
    4.3333   -0.8340    0.0000 C    0  0  0  0  0  0  0  0  0  0  0  0
    3.3704   -0.8340    0.0000 C    0  0  0  0  0  0  0  0  0  0  0  0
    0.9630    0.9630    0.0000 O    0  0  0  0  0  0  0  0  0  0  0  0
    0.0000    0.0000    0.0000 O    0  0  0  0  0  0  0  0  0  0  0  0
   -0.4815    0.8340    0.0000 C    0  0  0  0  0  0  0  0  0  0  0  0
    0.0000    1.6679    0.0000 C    0  0  0  0  0  0  0  0  0  0  0  0
   -1.4444    0.8340    0.0000 C    0  0  0  0  0  0  0  0  0  0  0  0
  1  2  1  0  0  0  0
  2  3  1  0  0  0  0
  2  4  1  0  0  0  0
  4  5  1  0  0  0  0
  5  6  1  0  0  0  0
  5 21  2  0  0  0  0
  5 22  1  0  0  0  0
  6 20  2  0  0  0  0
  6  7  1  0  0  0  0
  7  8  1  0  0  0  0
  7 17  2  0  0  0  0
  8  9  1  0  0  0  0
  8 15  1  0  0  0  0
  8 16  1  0  0  0  0
  9 14  2  0  0  0  0
  9 10  1  0  0  0  0
 10 11  2  0  0  0  0
 11 12  1  0  0  0  0
 12 13  2  0  0  0  0
 13 14  1  0  0  0  0
 17 18  1  0  0  0  0
 18 19  2  0  0  0  0
 19 20  1  0  0  0  0
 22 23  1  0  0  0  0
 23 24  1  0  0  0  0
 23 25  1  0  0  0  0
M  END
> <NMREDATA_VERSION>
1.1

> <NMREDATA_LEVEL>
0

> <NMREDATA_SOLVENT>
CDCl3

> <NMREDATA_FORMULA>
C20H29O3PSi

> <NMREDATA_SMILES>
CC(OP(=O)(c1ccccc1[Si](c1ccccc1)(C)C)OC(C)C)C

> <NMREDATA_ASSIGNMENT>
P5, 17.60, 5

> <NMREDATA_1D_31P>
Larmor=162
17.60, L=P5

$$$$
