
 OpenBabel06112616442D

 39 42  0  0  1  0  0  0  0  0999 V2000
   -1.6533   -0.9545    0.0000 C   0  0  0  0  0  0  0  0  0  0  0  0
   -1.6533    0.0000    0.0000 O   0  0  0  0  0  0  0  0  0  0  0  0
   -0.8267    0.4773    0.0000 C   0  0  0  0  0  0  0  0  0  0  0  0
   -0.8267    1.4318    0.0000 C   0  0  0  0  0  0  0  0  0  0  0  0
    0.0000    1.9091    0.0000 C   0  0  0  0  0  0  0  0  0  0  0  0
    0.8267    1.4318    0.0000 C   0  0  0  0  0  0  0  0  0  0  0  0
    1.6533    1.9091    0.0000 C   0  0  1  0  0  0  0  0  0  0  0  0
    3.3066    0.9545    0.0000 C   0  0  0  0  0  0  0  0  0  0  0  0
    4.1333    1.4318    0.0000 C   0  0  0  0  0  0  0  0  0  0  0  0
    4.1333    3.3409    0.0000 P   0  0  0  0  0  0  0  0  0  0  0  0
    4.9600    3.8182    0.0000 C   0  0  0  0  0  0  0  0  0  0  0  0
    4.9600    4.7727    0.0000 C   0  0  0  0  0  0  0  0  0  0  0  0
    5.7866    5.2500    0.0000 C   0  0  0  0  0  0  0  0  0  0  0  0
    6.6133    4.7727    0.0000 C   0  0  0  0  0  0  0  0  0  0  0  0
    6.6133    3.8182    0.0000 C   0  0  0  0  0  0  0  0  0  0  0  0
    5.7866    3.3409    0.0000 C   0  0  0  0  0  0  0  0  0  0  0  0
    3.3066    3.8182    0.0000 C   0  0  0  0  0  0  0  0  0  0  0  0
    2.4800    3.3409    0.0000 C   0  0  0  0  0  0  0  0  0  0  0  0
    1.6533    3.8182    0.0000 C   0  0  0  0  0  0  0  0  0  0  0  0
    1.6533    4.7727    0.0000 C   0  0  0  0  0  0  0  0  0  0  0  0
    2.4800    5.2500    0.0000 C   0  0  0  0  0  0  0  0  0  0  0  0
    3.3066    4.7727    0.0000 C   0  0  0  0  0  0  0  0  0  0  0  0
    4.9600    0.9545    0.0000 C   0  0  0  0  0  0  0  0  0  0  0  0
    4.9600    0.0000    0.0000 C   0  0  0  0  0  0  0  0  0  0  0  0
    5.7866   -0.4773    0.0000 O   0  0  0  0  0  0  0  0  0  0  0  0
    6.6133    0.0000    0.0000 C   0  0  0  0  0  0  0  0  0  0  0  0
    4.1333   -0.4773    0.0000 C   0  0  0  0  0  0  0  0  0  0  0  0
    4.1333   -1.4318    0.0000 O   0  0  0  0  0  0  0  0  0  0  0  0
    4.9600   -1.9091    0.0000 C   0  0  0  0  0  0  0  0  0  0  0  0
    3.3066    0.0000    0.0000 C   0  0  0  0  0  0  0  0  0  0  0  0
    1.6533    2.8636    0.0000 N   0  0  0  0  0  0  0  0  0  0  0  0
    0.8267    3.3409    0.0000 S   0  0  2  0  0  0  0  0  0  0  0  0
    0.0000    2.8636    0.0000 C   0  0  0  0  0  0  0  0  0  0  0  0
   -0.4773    2.0370    0.0000 C   0  0  0  0  0  0  0  0  0  0  0  0
    0.4773    2.0370    0.0000 C   0  0  0  0  0  0  0  0  0  0  0  0
   -0.8267    3.3409    0.0000 C   0  0  0  0  0  0  0  0  0  0  0  0
    0.8267    4.2955    0.0000 O   0  0  0  0  0  0  0  0  0  0  0  0
    0.8267    0.4773    0.0000 C   0  0  0  0  0  0  0  0  0  0  0  0
    0.0000    0.0000    0.0000 C   0  0  0  0  0  0  0  0  0  0  0  0
  1  2  1  0  0  0  0
  2  3  1  0  0  0  0
  3 39  2  0  0  0  0
  3  4  1  0  0  0  0
  4  5  2  0  0  0  0
  5  6  1  0  0  0  0
  6  7  1  0  0  0  0
  6 38  2  0  0  0  0
  7  8  1  0  0  0  0
  7 31  1  6  0  0  0
  8 30  2  0  0  0  0
  8  9  1  0  0  0  0
  9 10  1  0  0  0  0
  9 23  2  0  0  0  0
 10 11  1  0  0  0  0
 10 17  1  0  0  0  0
 11 16  2  0  0  0  0
 11 12  1  0  0  0  0
 12 13  2  0  0  0  0
 13 14  1  0  0  0  0
 14 15  2  0  0  0  0
 15 16  1  0  0  0  0
 17 22  2  0  0  0  0
 17 18  1  0  0  0  0
 18 19  2  0  0  0  0
 19 20  1  0  0  0  0
 20 21  2  0  0  0  0
 21 22  1  0  0  0  0
 23 24  1  0  0  0  0
 24 25  1  0  0  0  0
 24 27  2  0  0  0  0
 25 26  1  0  0  0  0
 27 28  1  0  0  0  0
 27 30  1  0  0  0  0
 28 29  1  0  0  0  0
 31 32  1  0  0  0  0
 32 33  1  0  0  0  0
 32 37  2  6  0  0  0
 33 34  1  0  0  0  0
 33 35  1  0  0  0  0
 33 36  1  0  0  0  0
 38 39  1  0  0  0  0
M  END
> <NMREDATA_VERSION>
1.1

> <NMREDATA_LEVEL>
0

> <NMREDATA_SOLVENT>
CDCl3

> <NMREDATA_FORMULA>
C32H36NO4PS

> <NMREDATA_SMILES>
COc1cc([C@H](c2ccc(cc2)OC)N[S@@](=O)C(C)(C)C)c(cc1OC)P(c1ccccc1)c1ccccc1

> <NMREDATA_ASSIGNMENT>
P10, -18.20, 10

> <NMREDATA_1D_31P>
Larmor=162
-18.20, L=P10

$$$$
