
 OpenBabel06112616482D

 56 63  0  0  0  0  0  0  0  0999 V2000
    4.1555   -1.0985    0.0000 C   0  0  0  0  0  0  0  0  0  0  0  0
    3.7551   -0.1993    0.0000 C   0  0  0  0  0  0  0  0  0  0  0  0
    2.7923    0.0054    0.0000 N   0  0  0  0  0  0  0  0  0  0  0  0
    2.6894    0.9844    0.0000 C   0  0  0  0  0  0  0  0  0  0  0  0
    1.8369    1.4766    0.0000 C   0  0  0  0  0  0  0  0  0  0  0  0
    0.9844    0.9844    0.0000 C   0  0  0  0  0  0  0  0  0  0  0  0
    0.9844    0.0000    0.0000 P   0  0  0  0  0  0  0  0  0  0  0  0
    1.9688    0.0000    0.0000 O   0  0  0  0  0  0  0  0  0  0  0  0
    0.9844   -0.9844    0.0000 C   0  0  0  0  0  0  0  0  0  0  0  0
    0.1319   -1.4766    0.0000 C   0  0  0  0  0  0  0  0  0  0  0  0
    0.1319   -2.4609    0.0000 C   0  0  0  0  0  0  0  0  0  0  0  0
    0.9844   -2.9531    0.0000 C   0  0  0  0  0  0  0  0  0  0  0  0
    1.8369   -2.4609    0.0000 C   0  0  0  0  0  0  0  0  0  0  0  0
    1.8369   -1.4766    0.0000 C   0  0  0  0  0  0  0  0  0  0  0  0
    0.0000    0.0000    0.0000 C   0  0  0  0  0  0  0  0  0  0  0  0
   -0.4922    0.8525    0.0000 C   0  0  0  0  0  0  0  0  0  0  0  0
   -1.4766    0.8525    0.0000 C   0  0  0  0  0  0  0  0  0  0  0  0
   -1.9688    0.0000    0.0000 C   0  0  0  0  0  0  0  0  0  0  0  0
   -1.4766   -0.8525    0.0000 C   0  0  0  0  0  0  0  0  0  0  0  0
   -0.4922   -0.8525    0.0000 C   0  0  0  0  0  0  0  0  0  0  0  0
    0.1319    1.4766    0.0000 C   0  0  0  0  0  0  0  0  0  0  0  0
    0.1319    2.4609    0.0000 C   0  0  0  0  0  0  0  0  0  0  0  0
    0.9844    2.9531    0.0000 C   0  0  0  0  0  0  0  0  0  0  0  0
    0.9844    3.9375    0.0000 C   0  0  0  0  0  0  0  0  0  0  0  0
    1.8369    4.4297    0.0000 C   0  0  0  0  0  0  0  0  0  0  0  0
    2.6894    3.9375    0.0000 C   0  0  0  0  0  0  0  0  0  0  0  0
    3.5419    4.4297    0.0000 C   0  0  0  0  0  0  0  0  0  0  0  0
    4.0340    5.2822    0.0000 F   0  0  0  0  0  0  0  0  0  0  0  0
    3.0497    5.2822    0.0000 F   0  0  0  0  0  0  0  0  0  0  0  0
    4.3944    3.9375    0.0000 F   0  0  0  0  0  0  0  0  0  0  0  0
    2.6894    2.9531    0.0000 C   0  0  0  0  0  0  0  0  0  0  0  0
    1.8369    2.4609    0.0000 C   0  0  0  0  0  0  0  0  0  0  0  0
    3.5886    1.3848    0.0000 N   0  0  0  0  0  0  0  0  0  0  0  0
    3.9980    3.3105    0.0000 C   0  0  0  0  0  0  0  0  0  0  0  0
    4.9342    3.6147    0.0000 C   0  0  0  0  0  0  0  0  0  0  0  0
    5.1388    4.5775    0.0000 C   0  0  0  0  0  0  0  0  0  0  0  0
    6.0750    4.8817    0.0000 C   0  0  0  0  0  0  0  0  0  0  0  0
    6.8065    4.2231    0.0000 C   0  0  0  0  0  0  0  0  0  0  0  0
    7.7427    4.5272    0.0000 C   0  0  0  0  0  0  0  0  0  0  0  0
    8.4014    5.2588    0.0000 F   0  0  0  0  0  0  0  0  0  0  0  0
    7.4386    5.4634    0.0000 F   0  0  0  0  0  0  0  0  0  0  0  0
    8.4743    3.8686    0.0000 F   0  0  0  0  0  0  0  0  0  0  0  0
    6.6019    3.2602    0.0000 C   0  0  0  0  0  0  0  0  0  0  0  0
    5.6657    2.9560    0.0000 C   0  0  0  0  0  0  0  0  0  0  0  0
    4.2473    0.6532    0.0000 C   0  0  0  0  0  0  0  0  0  0  0  0
    5.2263    0.7561    0.0000 C   0  0  0  0  0  0  0  0  0  0  0  0
    5.6267    1.6554    0.0000 C   0  0  0  0  0  0  0  0  0  0  0  0
    6.6057    1.7583    0.0000 C   0  0  0  0  0  0  0  0  0  0  0  0
    7.1843    0.9619    0.0000 C   0  0  0  0  0  0  0  0  0  0  0  0
    6.7839    0.0626    0.0000 C   0  0  0  0  0  0  0  0  0  0  0  0
    5.8049   -0.0403    0.0000 C   0  0  0  0  0  0  0  0  0  0  0  0
    5.1345   -1.2014    0.0000 C   0  0  0  0  0  0  0  0  0  0  0  0
    5.5349   -2.1007    0.0000 C   0  0  0  0  0  0  0  0  0  0  0  0
    4.9563   -2.8971    0.0000 C   0  0  0  0  0  0  0  0  0  0  0  0
    3.9773   -2.7942    0.0000 C   0  0  0  0  0  0  0  0  0  0  0  0
    3.5769   -1.8949    0.0000 C   0  0  0  0  0  0  0  0  0  0  0  0
  1 56  2  0  0  0  0
  1  2  1  0  0  0  0
  1 52  1  0  0  0  0
  2 45  2  0  0  0  0
  2  3  1  0  0  0  0
  3  4  2  0  0  0  0
  4  5  1  0  0  0  0
  4 33  1  0  0  0  0
  5 32  2  0  0  0  0
  5  6  1  0  0  0  0
  6  7  1  0  0  0  0
  6 21  2  0  0  0  0
  7  8  2  0  0  0  0
  7  9  1  0  0  0  0
  7 15  1  0  0  0  0
  9 14  2  0  0  0  0
  9 10  1  0  0  0  0
 10 11  2  0  0  0  0
 11 12  1  0  0  0  0
 12 13  2  0  0  0  0
 13 14  1  0  0  0  0
 15 20  2  0  0  0  0
 15 16  1  0  0  0  0
 16 17  2  0  0  0  0
 17 18  1  0  0  0  0
 18 19  2  0  0  0  0
 19 20  1  0  0  0  0
 21 22  1  0  0  0  0
 22 23  2  0  0  0  0
 23 32  1  0  0  0  0
 23 24  1  0  0  0  0
 24 25  2  0  0  0  0
 25 26  1  0  0  0  0
 26 27  1  0  0  0  0
 26 31  2  0  0  0  0
 27 28  1  0  0  0  0
 27 29  1  0  0  0  0
 27 30  1  0  0  0  0
 31 32  1  0  0  0  0
 33 34  1  0  0  0  0
 33 45  1  0  0  0  0
 34 35  1  0  0  0  0
 35 44  2  0  0  0  0
 35 36  1  0  0  0  0
 36 37  2  0  0  0  0
 37 38  1  0  0  0  0
 38 39  1  0  0  0  0
 38 43  2  0  0  0  0
 39 40  1  0  0  0  0
 39 41  1  0  0  0  0
 39 42  1  0  0  0  0
 43 44  1  0  0  0  0
 45 46  1  0  0  0  0
 46 51  2  0  0  0  0
 46 47  1  0  0  0  0
 47 48  2  0  0  0  0
 48 49  1  0  0  0  0
 49 50  2  0  0  0  0
 50 51  1  0  0  0  0
 52 53  2  0  0  0  0
 53 54  1  0  0  0  0
 54 55  2  0  0  0  0
 55 56  1  0  0  0  0
M  END
> <NMREDATA_VERSION>
1.1

> <NMREDATA_LEVEL>
0

> <NMREDATA_SOLVENT>
CDCl3

> <NMREDATA_FORMULA>
C46H31F6N2OP

> <NMREDATA_SMILES>
FC(c1ccc2c(c1)c(c1nc(c(n1Cc1ccc(cc1)C(F)(F)F)c1ccccc1)c1ccccc1)c(cc2)P(=O)(c1ccccc1)c1ccccc1)(F)F

> <NMREDATA_ASSIGNMENT>
P7, 27.00, 7

> <NMREDATA_1D_31P>
Larmor=243
27.00, L=P7

$$$$
