
 OpenBabel06112616432D

 38 42  0  0  0  0  0  0  0  0999 V2000
    5.3721   -0.8459    0.0000 C   0  0  0  0  0  0  0  0  0  0  0  0
    4.8837    0.0000    0.0000 O   0  0  0  0  0  0  0  0  0  0  0  0
    3.9070    0.0000    0.0000 C   0  0  0  0  0  0  0  0  0  0  0  0
    3.4186   -0.8459    0.0000 C   0  0  0  0  0  0  0  0  0  0  0  0
    2.4419   -0.8459    0.0000 C   0  0  0  0  0  0  0  0  0  0  0  0
    1.9535    0.0000    0.0000 C   0  0  0  0  0  0  0  0  0  0  0  0
    0.9767    0.0000    0.0000 P   0  0  0  0  0  0  0  0  0  0  0  0
    0.9767    0.9767    0.0000 O   0  0  0  0  0  0  0  0  0  0  0  0
    0.9767   -1.9535    0.0000 C   0  0  0  0  0  0  0  0  0  0  0  0
    1.7669   -2.5276    0.0000 C   0  0  0  0  0  0  0  0  0  0  0  0
    2.6959   -2.2258    0.0000 N   0  0  0  0  0  0  0  0  0  0  0  0
    3.4217   -2.8793    0.0000 C   0  0  0  0  0  0  0  0  0  0  0  0
    4.3507   -2.5775    0.0000 C   0  0  0  0  0  0  0  0  0  0  0  0
    5.0765   -3.2311    0.0000 C   0  0  0  0  0  0  0  0  0  0  0  0
    4.8735   -4.1865    0.0000 C   0  0  0  0  0  0  0  0  0  0  0  0
    3.9445   -4.4883    0.0000 C   0  0  0  0  0  0  0  0  0  0  0  0
    3.2187   -3.8347    0.0000 C   0  0  0  0  0  0  0  0  0  0  0  0
    1.4651   -3.4565    0.0000 C   0  0  0  0  0  0  0  0  0  0  0  0
    2.0392   -4.2467    0.0000 O   0  0  0  0  0  0  0  0  0  0  0  0
    0.4884   -3.4565    0.0000 N   0  0  0  0  0  0  0  0  0  0  0  0
   -0.0857   -4.2467    0.0000 C   0  0  0  0  0  0  0  0  0  0  0  0
    0.3115   -5.1390    0.0000 C   0  0  0  0  0  0  0  0  0  0  0  0
   -0.2626   -5.9292    0.0000 C   0  0  0  0  0  0  0  0  0  0  0  0
   -1.2340   -5.8272    0.0000 C   0  0  0  0  0  0  0  0  0  0  0  0
   -1.6313   -4.9349    0.0000 C   0  0  0  0  0  0  0  0  0  0  0  0
   -1.0571   -4.1446    0.0000 C   0  0  0  0  0  0  0  0  0  0  0  0
    0.1865   -2.5276    0.0000 C   0  0  0  0  0  0  0  0  0  0  0  0
   -0.7424   -2.2258    0.0000 O   0  0  0  0  0  0  0  0  0  0  0  0
    0.0000    0.0000    0.0000 C   0  0  0  0  0  0  0  0  0  0  0  0
   -0.4884   -0.8459    0.0000 C   0  0  0  0  0  0  0  0  0  0  0  0
   -1.4651   -0.8459    0.0000 C   0  0  0  0  0  0  0  0  0  0  0  0
   -1.9535    0.0000    0.0000 C   0  0  0  0  0  0  0  0  0  0  0  0
   -2.9302    0.0000    0.0000 O   0  0  0  0  0  0  0  0  0  0  0  0
   -3.4186    0.8459    0.0000 C   0  0  0  0  0  0  0  0  0  0  0  0
   -1.4651    0.8459    0.0000 C   0  0  0  0  0  0  0  0  0  0  0  0
   -0.4884    0.8459    0.0000 C   0  0  0  0  0  0  0  0  0  0  0  0
    2.4419    0.8459    0.0000 C   0  0  0  0  0  0  0  0  0  0  0  0
    3.4186    0.8459    0.0000 C   0  0  0  0  0  0  0  0  0  0  0  0
  1  2  1  0  0  0  0
  2  3  1  0  0  0  0
  3 38  2  0  0  0  0
  3  4  1  0  0  0  0
  4  5  2  0  0  0  0
  5  6  1  0  0  0  0
  6  7  1  0  0  0  0
  6 37  2  0  0  0  0
  7  8  2  0  0  0  0
  7  9  1  0  0  0  0
  7 29  1  0  0  0  0
  9 27  1  0  0  0  0
  9 10  2  0  0  0  0
 10 11  1  0  0  0  0
 10 18  1  0  0  0  0
 11 12  1  0  0  0  0
 12 17  2  0  0  0  0
 12 13  1  0  0  0  0
 13 14  2  0  0  0  0
 14 15  1  0  0  0  0
 15 16  2  0  0  0  0
 16 17  1  0  0  0  0
 18 19  2  0  0  0  0
 18 20  1  0  0  0  0
 20 21  1  0  0  0  0
 20 27  1  0  0  0  0
 21 26  2  0  0  0  0
 21 22  1  0  0  0  0
 22 23  2  0  0  0  0
 23 24  1  0  0  0  0
 24 25  2  0  0  0  0
 25 26  1  0  0  0  0
 27 28  2  0  0  0  0
 29 36  2  0  0  0  0
 29 30  1  0  0  0  0
 30 31  2  0  0  0  0
 31 32  1  0  0  0  0
 32 33  1  0  0  0  0
 32 35  2  0  0  0  0
 33 34  1  0  0  0  0
 35 36  1  0  0  0  0
 37 38  1  0  0  0  0
M  END
> <NMREDATA_VERSION>
1.1

> <NMREDATA_LEVEL>
0

> <NMREDATA_SOLVENT>
CDCl3

> <NMREDATA_FORMULA>
C30H25N2O5P

> <NMREDATA_SMILES>
COc1ccc(cc1)P(=O)(C1=C(Nc2ccccc2)C(=O)N(C1=O)c1ccccc1)c1ccc(cc1)OC

> <NMREDATA_ASSIGNMENT>
P7, 28.93, 7

> <NMREDATA_1D_31P>
Larmor=162
28.93, L=P7

$$$$
