
 OpenBabel06112616472D

 38 42  0  0  0  0  0  0  0  0999 V2000
    8.2815    6.5554    0.0000 C   0  0  0  0  0  0  0  0  0  0  0  0
    7.3304    6.2464    0.0000 O   0  0  0  0  0  0  0  0  0  0  0  0
    7.1225    5.2682    0.0000 C   0  0  0  0  0  0  0  0  0  0  0  0
    6.1714    4.9592    0.0000 C   0  0  0  0  0  0  0  0  0  0  0  0
    5.9635    3.9811    0.0000 O   0  0  0  0  0  0  0  0  0  0  0  0
    5.0125    3.6720    0.0000 C   0  0  0  0  0  0  0  0  0  0  0  0
    4.2693    4.3412    0.0000 O   0  0  0  0  0  0  0  0  0  0  0  0
    4.8046    2.6939    0.0000 C   0  0  0  0  0  0  0  0  0  0  0  0
    3.8535    2.3849    0.0000 C   0  0  0  0  0  0  0  0  0  0  0  0
    3.6456    1.4067    0.0000 C   0  0  0  0  0  0  0  0  0  0  0  0
    4.3147    0.6636    0.0000 C   0  0  0  0  0  0  0  0  0  0  0  0
    3.8147   -0.2024    0.0000 C   0  0  0  0  0  0  0  0  0  0  0  0
    4.1237   -1.1535    0.0000 C   0  0  0  0  0  0  0  0  0  0  0  0
    3.4546   -1.8966    0.0000 C   0  0  0  0  0  0  0  0  0  0  0  0
    2.4765   -1.6887    0.0000 C   0  0  0  0  0  0  0  0  0  0  0  0
    2.1674   -0.7377    0.0000 C   0  0  0  0  0  0  0  0  0  0  0  0
    2.8366    0.0055    0.0000 C   0  0  0  0  0  0  0  0  0  0  0  0
    2.7321    1.0000    0.0000 N   0  0  0  0  0  0  0  0  0  0  0  0
    1.8660    1.5000    0.0000 C   0  0  0  0  0  0  0  0  0  0  0  0
    1.8660    2.5000    0.0000 C   0  0  0  0  0  0  0  0  0  0  0  0
    1.0000    3.0000    0.0000 C   0  0  0  0  0  0  0  0  0  0  0  0
    0.1340    2.5000    0.0000 C   0  0  0  0  0  0  0  0  0  0  0  0
    0.1340    1.5000    0.0000 C   0  0  0  0  0  0  0  0  0  0  0  0
    1.0000    1.0000    0.0000 C   0  0  0  0  0  0  0  0  0  0  0  0
    1.0000    0.0000    0.0000 P   0  0  0  0  0  0  0  0  0  0  0  0
    2.0000    0.0000    0.0000 O   0  0  0  0  0  0  0  0  0  0  0  0
    1.0000   -1.0000    0.0000 C   0  0  0  0  0  0  0  0  0  0  0  0
    0.1340   -1.5000    0.0000 C   0  0  0  0  0  0  0  0  0  0  0  0
    0.1340   -2.5000    0.0000 C   0  0  0  0  0  0  0  0  0  0  0  0
    1.0000   -3.0000    0.0000 C   0  0  0  0  0  0  0  0  0  0  0  0
    1.8660   -2.5000    0.0000 C   0  0  0  0  0  0  0  0  0  0  0  0
    1.8660   -1.5000    0.0000 C   0  0  0  0  0  0  0  0  0  0  0  0
    0.0000    0.0000    0.0000 C   0  0  0  0  0  0  0  0  0  0  0  0
   -0.5000    0.8660    0.0000 C   0  0  0  0  0  0  0  0  0  0  0  0
   -1.5000    0.8660    0.0000 C   0  0  0  0  0  0  0  0  0  0  0  0
   -2.0000    0.0000    0.0000 C   0  0  0  0  0  0  0  0  0  0  0  0
   -1.5000   -0.8660    0.0000 C   0  0  0  0  0  0  0  0  0  0  0  0
   -0.5000   -0.8660    0.0000 C   0  0  0  0  0  0  0  0  0  0  0  0
  1  2  1  0  0  0  0
  2  3  1  0  0  0  0
  3  4  1  0  0  0  0
  4  5  1  0  0  0  0
  5  6  1  0  0  0  0
  6  7  2  0  0  0  0
  6  8  1  0  0  0  0
  8  9  2  0  0  0  0
  9 10  1  0  0  0  0
 10 18  1  0  0  0  0
 10 11  2  0  0  0  0
 11 12  1  0  0  0  0
 12 17  2  0  0  0  0
 12 13  1  0  0  0  0
 13 14  2  0  0  0  0
 14 15  1  0  0  0  0
 15 16  2  0  0  0  0
 16 17  1  0  0  0  0
 17 18  1  0  0  0  0
 18 19  1  0  0  0  0
 19 24  2  0  0  0  0
 19 20  1  0  0  0  0
 20 21  2  0  0  0  0
 21 22  1  0  0  0  0
 22 23  2  0  0  0  0
 23 24  1  0  0  0  0
 24 25  1  0  0  0  0
 25 26  2  0  0  0  0
 25 27  1  0  0  0  0
 25 33  1  0  0  0  0
 27 32  2  0  0  0  0
 27 28  1  0  0  0  0
 28 29  2  0  0  0  0
 29 30  1  0  0  0  0
 30 31  2  0  0  0  0
 31 32  1  0  0  0  0
 33 38  2  0  0  0  0
 33 34  1  0  0  0  0
 34 35  2  0  0  0  0
 35 36  1  0  0  0  0
 36 37  2  0  0  0  0
 37 38  1  0  0  0  0
M  END
> <NMREDATA_VERSION>
1.1

> <NMREDATA_LEVEL>
0

> <NMREDATA_SOLVENT>
CDCl3

> <NMREDATA_FORMULA>
C32H28NO4P

> <NMREDATA_SMILES>
COCCOC(=O)/C=C/c1cc2c(n1c1ccccc1P(=O)(c1ccccc1)c1ccccc1)cccc2

> <NMREDATA_ASSIGNMENT>
P25, 23.87, 25

> <NMREDATA_1D_31P>
Larmor=162
23.87, L=P25

$$$$
