
 OpenBabel06112616432D

 39 43  0  0  1  0  0  0  0  0999 V2000
    0.9773   -4.3626    0.0000 C   0  0  0  0  0  0  0  0  0  0  0  0
    0.4886   -3.5163    0.0000 C   0  0  0  0  0  0  0  0  0  0  0  0
    0.9773   -2.6700    0.0000 C   0  0  0  0  0  0  0  0  0  0  0  0
    1.9545   -2.6700    0.0000 C   0  0  0  0  0  0  0  0  0  0  0  0
    2.4432   -1.8236    0.0000 N   0  0  0  0  0  0  0  0  0  0  0  0
    3.4205   -1.8236    0.0000 C   0  0  0  0  0  0  0  0  0  0  0  0
    3.9091   -0.9773    0.0000 C   0  0  0  0  0  0  0  0  0  0  0  0
    4.8864   -0.9773    0.0000 C   0  0  0  0  0  0  0  0  0  0  0  0
    5.3750   -1.8236    0.0000 C   0  0  0  0  0  0  0  0  0  0  0  0
    4.8864   -2.6700    0.0000 C   0  0  0  0  0  0  0  0  0  0  0  0
    3.9091   -2.6700    0.0000 C   0  0  0  0  0  0  0  0  0  0  0  0
    1.9545   -0.9773    0.0000 C   0  0  3  0  0  0  0  0  0  0  0  0
    2.4432   -0.1309    0.0000 C   0  0  0  0  0  0  0  0  0  0  0  0
    1.9545    0.7154    0.0000 C   0  0  0  0  0  0  0  0  0  0  0  0
    2.4432    1.5618    0.0000 C   0  0  0  0  0  0  0  0  0  0  0  0
    3.4205    1.5618    0.0000 C   0  0  0  0  0  0  0  0  0  0  0  0
    3.9091    2.4081    0.0000 C   0  0  0  0  0  0  0  0  0  0  0  0
    3.9091    0.7154    0.0000 C   0  0  0  0  0  0  0  0  0  0  0  0
    3.4205   -0.1309    0.0000 C   0  0  0  0  0  0  0  0  0  0  0  0
    0.0000   -0.9773    0.0000 P   0  0  0  0  0  0  0  0  0  0  0  0
    0.0000   -1.9545    0.0000 O   0  0  0  0  0  0  0  0  0  0  0  0
   -0.9773   -0.9773    0.0000 C   0  0  0  0  0  0  0  0  0  0  0  0
   -1.4659   -0.1309    0.0000 C   0  0  0  0  0  0  0  0  0  0  0  0
   -2.4432   -0.1309    0.0000 C   0  0  0  0  0  0  0  0  0  0  0  0
   -2.9318    0.7154    0.0000 C   0  0  0  0  0  0  0  0  0  0  0  0
   -2.9318   -0.9773    0.0000 C   0  0  0  0  0  0  0  0  0  0  0  0
   -2.4432   -1.8236    0.0000 C   0  0  0  0  0  0  0  0  0  0  0  0
   -2.9318   -2.6700    0.0000 C   0  0  0  0  0  0  0  0  0  0  0  0
   -1.4659   -1.8236    0.0000 C   0  0  0  0  0  0  0  0  0  0  0  0
    0.0000    0.0000    0.0000 C   0  0  0  0  0  0  0  0  0  0  0  0
    0.8463    0.4886    0.0000 C   0  0  0  0  0  0  0  0  0  0  0  0
    0.8463    1.4659    0.0000 C   0  0  0  0  0  0  0  0  0  0  0  0
    1.6927    1.9545    0.0000 C   0  0  0  0  0  0  0  0  0  0  0  0
    0.0000    1.9545    0.0000 C   0  0  0  0  0  0  0  0  0  0  0  0
   -0.8463    1.4659    0.0000 C   0  0  0  0  0  0  0  0  0  0  0  0
   -1.6927    1.9545    0.0000 C   0  0  0  0  0  0  0  0  0  0  0  0
   -0.8463    0.4886    0.0000 C   0  0  0  0  0  0  0  0  0  0  0  0
    2.4432   -3.5163    0.0000 C   0  0  0  0  0  0  0  0  0  0  0  0
    1.9545   -4.3626    0.0000 C   0  0  0  0  0  0  0  0  0  0  0  0
  1 39  2  0  0  0  0
  1  2  1  0  0  0  0
  2  3  2  0  0  0  0
  3  4  1  0  0  0  0
  4  5  1  0  0  0  0
  4 38  2  0  0  0  0
  5  6  1  0  0  0  0
  5 12  1  0  0  0  0
  6 11  2  0  0  0  0
  6  7  1  0  0  0  0
  7  8  2  0  0  0  0
  8  9  1  0  0  0  0
  9 10  2  0  0  0  0
 10 11  1  0  0  0  0
 12 13  1  0  0  0  0
 12 20  1  0  0  0  0
 13 19  2  0  0  0  0
 13 14  1  0  0  0  0
 14 15  2  0  0  0  0
 15 16  1  0  0  0  0
 16 17  1  0  0  0  0
 16 18  2  0  0  0  0
 18 19  1  0  0  0  0
 20 21  2  0  0  0  0
 20 22  1  0  0  0  0
 20 30  1  0  0  0  0
 22 29  2  0  0  0  0
 22 23  1  0  0  0  0
 23 24  2  0  0  0  0
 24 25  1  0  0  0  0
 24 26  1  0  0  0  0
 26 27  2  0  0  0  0
 27 28  1  0  0  0  0
 27 29  1  0  0  0  0
 30 37  2  0  0  0  0
 30 31  1  0  0  0  0
 31 32  2  0  0  0  0
 32 33  1  0  0  0  0
 32 34  1  0  0  0  0
 34 35  2  0  0  0  0
 35 36  1  0  0  0  0
 35 37  1  0  0  0  0
 38 39  1  0  0  0  0
M  END
> <NMREDATA_VERSION>
1.1

> <NMREDATA_LEVEL>
0

> <NMREDATA_SOLVENT>
CDCl3

> <NMREDATA_FORMULA>
C36H36NOP

> <NMREDATA_SMILES>
Cc1ccc(cc1)C(P(=O)(c1cc(C)cc(c1)C)c1cc(C)cc(c1)C)N(c1ccccc1)c1ccccc1

> <NMREDATA_ASSIGNMENT>
P20, 30.36, 20

> <NMREDATA_1D_31P>
Larmor=162
30.36, L=P20

$$$$
