
 OpenBabel06112616452D

 34 39  0  0  1  0  0  0  0  0999 V2000
    0.2204    1.7347    0.0000 C   0  0  0  0  0  0  0  0  0  0  0  0
   -0.2796    0.8686    0.0000 C   0  0  2  0  0  0  0  0  0  0  0  0
   -1.2741    0.7641    0.0000 C   0  0  0  0  0  0  0  0  0  0  0  0
   -2.1401    1.2641    0.0000 C   0  0  0  0  0  0  0  0  0  0  0  0
   -2.2447    2.2586    0.0000 C   0  0  0  0  0  0  0  0  0  0  0  0
   -2.8833    0.5950    0.0000 C   0  0  0  0  0  0  0  0  0  0  0  0
   -3.8778    0.6995    0.0000 C   0  0  0  0  0  0  0  0  0  0  0  0
   -4.4656   -0.1095    0.0000 C   0  0  0  0  0  0  0  0  0  0  0  0
   -4.0589   -1.0230    0.0000 C   0  0  0  0  0  0  0  0  0  0  0  0
   -3.0643   -1.1276    0.0000 C   0  0  0  0  0  0  0  0  0  0  0  0
   -2.4765   -0.3186    0.0000 C   0  0  0  0  0  0  0  0  0  0  0  0
   -1.4820   -0.2140    0.0000 N   0  0  0  0  0  0  0  0  0  0  0  0
   -0.6160   -0.7140    0.0000 C   0  0  0  0  0  0  0  0  0  0  0  0
   -0.5115   -1.7086    0.0000 O   0  0  0  0  0  0  0  0  0  0  0  0
    0.1271   -0.0449    0.0000 C   0  0  1  0  0  0  0  0  0  0  0  0
    1.7321    0.0000    0.0000 P   0  0  0  0  0  0  0  0  0  0  0  0
    1.7321    1.0000    0.0000 O   0  0  0  0  0  0  0  0  0  0  0  0
    0.8660   -0.5000    0.0000 C   0  0  0  0  0  0  0  0  0  0  0  0
    0.8660   -1.5000    0.0000 C   0  0  0  0  0  0  0  0  0  0  0  0
    0.0000   -2.0000    0.0000 C   0  0  0  0  0  0  0  0  0  0  0  0
   -0.8660   -1.5000    0.0000 C   0  0  0  0  0  0  0  0  0  0  0  0
   -0.8660   -0.5000    0.0000 C   0  0  0  0  0  0  0  0  0  0  0  0
    0.0000    0.0000    0.0000 C   0  0  0  0  0  0  0  0  0  0  0  0
    2.5981   -0.5000    0.0000 C   0  0  0  0  0  0  0  0  0  0  0  0
    3.5762   -0.2921    0.0000 C   0  0  0  0  0  0  0  0  0  0  0  0
    4.2454   -1.0352    0.0000 C   0  0  0  0  0  0  0  0  0  0  0  0
    3.9363   -1.9863    0.0000 C   0  0  0  0  0  0  0  0  0  0  0  0
    2.9582   -2.1942    0.0000 C   0  0  0  0  0  0  0  0  0  0  0  0
    2.2891   -1.4511    0.0000 C   0  0  0  0  0  0  0  0  0  0  0  0
    1.2204    1.7347    0.0000 C   0  0  0  0  0  0  0  0  0  0  0  0
    1.7204    2.6007    0.0000 C   0  0  0  0  0  0  0  0  0  0  0  0
    1.2204    3.4667    0.0000 C   0  0  0  0  0  0  0  0  0  0  0  0
    0.2204    3.4667    0.0000 C   0  0  0  0  0  0  0  0  0  0  0  0
   -0.2796    2.6007    0.0000 C   0  0  0  0  0  0  0  0  0  0  0  0
  1 34  2  0  0  0  0
  1 30  1  0  0  0  0
  2  1  1  1  0  0  0
  2  3  1  0  0  0  0
  2 15  1  0  0  0  0
  3 12  1  0  0  0  0
  3  4  2  0  0  0  0
  4  5  1  0  0  0  0
  4  6  1  0  0  0  0
  6 11  2  0  0  0  0
  6  7  1  0  0  0  0
  7  8  2  0  0  0  0
  8  9  1  0  0  0  0
  9 10  2  0  0  0  0
 10 11  1  0  0  0  0
 11 12  1  0  0  0  0
 12 13  1  0  0  0  0
 13 14  2  0  0  0  0
 13 15  1  0  0  0  0
 15 16  1  6  0  0  0
 16 17  2  0  0  0  0
 16 18  1  0  0  0  0
 16 24  1  0  0  0  0
 18 23  2  0  0  0  0
 18 19  1  0  0  0  0
 19 20  2  0  0  0  0
 20 21  1  0  0  0  0
 21 22  2  0  0  0  0
 22 23  1  0  0  0  0
 24 29  2  0  0  0  0
 24 25  1  0  0  0  0
 25 26  2  0  0  0  0
 26 27  1  0  0  0  0
 27 28  2  0  0  0  0
 28 29  1  0  0  0  0
 30 31  2  0  0  0  0
 31 32  1  0  0  0  0
 32 33  2  0  0  0  0
 33 34  1  0  0  0  0
M  END
> <NMREDATA_VERSION>
1.1

> <NMREDATA_LEVEL>
0

> <NMREDATA_SOLVENT>
CDCl3

> <NMREDATA_FORMULA>
C30H24NO2P

> <NMREDATA_SMILES>
Cc1c2ccccc2n2c1[C@@H](c1ccccc1)[C@@H](C2=O)P(=O)(c1ccccc1)c1ccccc1

> <NMREDATA_ASSIGNMENT>
P16, 30.21, 16

> <NMREDATA_1D_31P>
Larmor=20
30.21, L=P16

$$$$
