
 OpenBabel06112616452D

 31 34  0  0  0  0  0  0  0  0999 V2000
   -1.6622   -1.9135    0.0000 C   0  5  0  0  0  0  0  0  0  0  0  0
   -0.7384   -2.2137    0.0000 N   0  3  0  0  0  0  0  0  0  0  0  0
    0.1855   -2.5138    0.0000 C   0  0  0  0  0  0  0  0  0  0  0  0
    0.9714   -1.9429    0.0000 C   0  0  0  0  0  0  0  0  0  0  0  0
    0.9714    0.0000    0.0000 P   0  0  0  0  0  0  0  0  0  0  0  0
    1.9429    0.0000    0.0000 C   0  0  0  0  0  0  0  0  0  0  0  0
    2.4286    0.8413    0.0000 C   0  0  0  0  0  0  0  0  0  0  0  0
    3.4000    0.8413    0.0000 C   0  0  0  0  0  0  0  0  0  0  0  0
    3.8857    0.0000    0.0000 C   0  0  0  0  0  0  0  0  0  0  0  0
    4.8571    0.0000    0.0000 C   0  0  0  0  0  0  0  0  0  0  0  0
    5.3429   -0.8413    0.0000 C   0  0  0  0  0  0  0  0  0  0  0  0
    3.4000   -0.8413    0.0000 C   0  0  0  0  0  0  0  0  0  0  0  0
    2.4286   -0.8413    0.0000 C   0  0  0  0  0  0  0  0  0  0  0  0
    0.9714    0.9714    0.0000 O   0  0  0  0  0  0  0  0  0  0  0  0
    0.0000    0.0000    0.0000 C   0  0  0  0  0  0  0  0  0  0  0  0
   -0.4857   -0.8413    0.0000 C   0  0  0  0  0  0  0  0  0  0  0  0
   -1.4571   -0.8413    0.0000 C   0  0  0  0  0  0  0  0  0  0  0  0
   -1.9429    0.0000    0.0000 C   0  0  0  0  0  0  0  0  0  0  0  0
   -2.9143    0.0000    0.0000 C   0  0  0  0  0  0  0  0  0  0  0  0
   -3.4000    0.8413    0.0000 C   0  0  0  0  0  0  0  0  0  0  0  0
   -1.4571    0.8413    0.0000 C   0  0  0  0  0  0  0  0  0  0  0  0
   -0.4857    0.8413    0.0000 C   0  0  0  0  0  0  0  0  0  0  0  0
    1.7573   -2.5138    0.0000 N   0  0  0  0  0  0  0  0  0  0  0  0
    1.4571   -3.4377    0.0000 C   0  0  0  0  0  0  0  0  0  0  0  0
    2.0281   -4.2236    0.0000 C   0  0  0  0  0  0  0  0  0  0  0  0
    2.9942   -4.1221    0.0000 C   0  0  0  0  0  0  0  0  0  0  0  0
    3.5652   -4.9080    0.0000 C   0  0  0  0  0  0  0  0  0  0  0  0
    3.1701   -5.7954    0.0000 C   0  0  0  0  0  0  0  0  0  0  0  0
    2.2040   -5.8970    0.0000 C   0  0  0  0  0  0  0  0  0  0  0  0
    1.6330   -5.1111    0.0000 C   0  0  0  0  0  0  0  0  0  0  0  0
    0.4857   -3.4377    0.0000 C   0  0  0  0  0  0  0  0  0  0  0  0
  1  2  3  0  0  0  0
  2  3  1  0  0  0  0
  3 31  1  0  0  0  0
  3  4  2  0  0  0  0
  4  5  1  0  0  0  0
  4 23  1  0  0  0  0
  5  6  1  0  0  0  0
  5 14  2  0  0  0  0
  5 15  1  0  0  0  0
  6 13  2  0  0  0  0
  6  7  1  0  0  0  0
  7  8  2  0  0  0  0
  8  9  1  0  0  0  0
  9 10  1  0  0  0  0
  9 12  2  0  0  0  0
 10 11  1  0  0  0  0
 12 13  1  0  0  0  0
 15 22  2  0  0  0  0
 15 16  1  0  0  0  0
 16 17  2  0  0  0  0
 17 18  1  0  0  0  0
 18 19  1  0  0  0  0
 18 21  2  0  0  0  0
 19 20  1  0  0  0  0
 21 22  1  0  0  0  0
 23 24  1  0  0  0  0
 24 25  1  0  0  0  0
 24 31  2  0  0  0  0
 25 30  2  0  0  0  0
 25 26  1  0  0  0  0
 26 27  2  0  0  0  0
 27 28  1  0  0  0  0
 28 29  2  0  0  0  0
 29 30  1  0  0  0  0
M  END
> <NMREDATA_VERSION>
1.1

> <NMREDATA_LEVEL>
0

> <NMREDATA_SOLVENT>
CDCl3

> <NMREDATA_FORMULA>
C27H25N2OP

> <NMREDATA_SMILES>
[C-]#[N+]c1cc([nH]c1P(=O)(c1ccc(cc1)CC)c1ccc(cc1)CC)c1ccccc1

> <NMREDATA_ASSIGNMENT>
P5, 20.00, 5

> <NMREDATA_1D_31P>
Larmor=160
20.00, L=P5

$$$$
