
 OpenBabel06112616492D

 43 46  0  0  1  0  0  0  0  0999 V2000
    9.3000   -1.5000    0.0000 O   0  0  0  0  0  0  0  0  0  0  0  0
   10.3000   -1.5000    0.0000 S   0  0  0  0  0  0  0  0  0  0  0  0
   10.3000   -2.5000    0.0000 O   0  0  0  0  0  0  0  0  0  0  0  0
   11.3000   -1.5000    0.0000 C   0  0  0  0  0  0  0  0  0  0  0  0
   12.1660   -1.0000    0.0000 F   0  0  0  0  0  0  0  0  0  0  0  0
   11.3000   -0.5000    0.0000 F   0  0  0  0  0  0  0  0  0  0  0  0
   11.8000   -2.3660    0.0000 F   0  0  0  0  0  0  0  0  0  0  0  0
   10.3000   -0.5000    0.0000 O   0  5  0  0  0  0  0  0  0  0  0  0
    5.3750   -7.6469    0.0000 C   0  0  0  0  0  0  0  0  0  0  0  0
    4.5306   -7.1594    0.0000 C   0  0  0  0  0  0  0  0  0  0  0  0
    4.5306   -6.1844    0.0000 C   0  0  0  0  0  0  0  0  0  0  0  0
    5.3750   -5.6969    0.0000 C   0  0  0  0  0  0  0  0  0  0  0  0
    5.3750   -4.7219    0.0000 P   0  3  0  0  0  0  0  0  0  0  0  0
    6.3500   -4.7219    0.0000 C   0  0  0  0  0  0  0  0  0  0  0  0
    6.8375   -3.8775    0.0000 C   0  0  0  0  0  0  0  0  0  0  0  0
    7.8125   -3.8775    0.0000 C   0  0  0  0  0  0  0  0  0  0  0  0
    8.3000   -4.7219    0.0000 C   0  0  0  0  0  0  0  0  0  0  0  0
    7.8125   -5.5662    0.0000 C   0  0  0  0  0  0  0  0  0  0  0  0
    6.8375   -5.5662    0.0000 C   0  0  0  0  0  0  0  0  0  0  0  0
    5.3750   -3.7469    0.0000 C   0  0  0  0  0  0  0  0  0  0  0  0
    4.5306   -3.2594    0.0000 C   0  0  0  0  0  0  0  0  0  0  0  0
    4.5306   -2.2844    0.0000 C   0  0  0  0  0  0  0  0  0  0  0  0
    5.3750   -1.7969    0.0000 C   0  0  0  0  0  0  0  0  0  0  0  0
    6.2194   -2.2844    0.0000 C   0  0  0  0  0  0  0  0  0  0  0  0
    6.2194   -3.2594    0.0000 C   0  0  0  0  0  0  0  0  0  0  0  0
    3.4250   -4.7219    0.0000 C   0  0  2  0  0  0  0  0  0  0  0  0
    2.9375   -3.8775    0.0000 C   0  0  0  0  0  0  0  0  0  0  0  0
    1.9625   -3.8775    0.0000 C   0  0  0  0  0  0  0  0  0  0  0  0
    1.4750   -3.0331    0.0000 C   0  0  0  0  0  0  0  0  0  0  0  0
    1.9625   -2.1887    0.0000 C   0  0  0  0  0  0  0  0  0  0  0  0
    1.4750   -1.3444    0.0000 O   0  0  0  0  0  0  0  0  0  0  0  0
    1.9625   -0.5000    0.0000 C   0  0  0  0  0  0  0  0  0  0  0  0
    2.9375   -2.1887    0.0000 C   0  0  0  0  0  0  0  0  0  0  0  0
    3.4250   -3.0331    0.0000 C   0  0  0  0  0  0  0  0  0  0  0  0
    2.9375   -5.5662    0.0000 C   0  0  0  0  0  0  0  0  0  0  0  0
    3.4250   -6.4106    0.0000 C   0  0  0  0  0  0  0  0  0  0  0  0
    2.9375   -7.2550    0.0000 C   0  0  0  0  0  0  0  0  0  0  0  0
    1.9625   -7.2550    0.0000 C   0  0  0  0  0  0  0  0  0  0  0  0
    1.4750   -6.4106    0.0000 C   0  0  0  0  0  0  0  0  0  0  0  0
    0.5000   -6.4106    0.0000 C   0  0  0  0  0  0  0  0  0  0  0  0
    1.9625   -5.5662    0.0000 C   0  0  0  0  0  0  0  0  0  0  0  0
    6.2194   -6.1844    0.0000 C   0  0  0  0  0  0  0  0  0  0  0  0
    6.2194   -7.1594    0.0000 C   0  0  0  0  0  0  0  0  0  0  0  0
  1  2  2  0  0  0  0
  2  3  2  0  0  0  0
  2  4  1  0  0  0  0
  2  8  1  0  0  0  0
  4  5  1  0  0  0  0
  4  6  1  0  0  0  0
  4  7  1  0  0  0  0
  9 43  2  0  0  0  0
  9 10  1  0  0  0  0
 10 11  2  0  0  0  0
 11 12  1  0  0  0  0
 12 13  1  0  0  0  0
 12 42  2  0  0  0  0
 13 14  1  0  0  0  0
 13 20  1  0  0  0  0
 14 19  2  0  0  0  0
 14 15  1  0  0  0  0
 15 16  2  0  0  0  0
 16 17  1  0  0  0  0
 17 18  2  0  0  0  0
 18 19  1  0  0  0  0
 20 25  2  0  0  0  0
 20 21  1  0  0  0  0
 21 22  2  0  0  0  0
 22 23  1  0  0  0  0
 23 24  2  0  0  0  0
 24 25  1  0  0  0  0
 26 13  1  1  0  0  0
 26 27  1  0  0  0  0
 26 35  1  0  0  0  0
 27 34  2  0  0  0  0
 27 28  1  0  0  0  0
 28 29  2  0  0  0  0
 29 30  1  0  0  0  0
 30 31  1  0  0  0  0
 30 33  2  0  0  0  0
 31 32  1  0  0  0  0
 33 34  1  0  0  0  0
 35 41  2  0  0  0  0
 35 36  1  0  0  0  0
 36 37  2  0  0  0  0
 37 38  1  0  0  0  0
 38 39  2  0  0  0  0
 39 40  1  0  0  0  0
 39 41  1  0  0  0  0
 42 43  1  0  0  0  0
M  END
> <NMREDATA_VERSION>
1.1

> <NMREDATA_LEVEL>
0

> <NMREDATA_SOLVENT>
CDCl3

> <NMREDATA_FORMULA>
C34H30F3O4PS

> <NMREDATA_SMILES>
FC(S(=O)(=O)[O-])(F)F.COc1ccc(cc1)[C@@H]([P+](c1ccccc1)(c1ccccc1)c1ccccc1)c1cccc(c1)C

> <NMREDATA_ASSIGNMENT>
P13, 21.30, 13

> <NMREDATA_1D_31P>
Larmor=162
21.30, L=P13

$$$$
