
 OpenBabel06112616442D

 44 48  0  0  0  0  0  0  0  0999 V2000
    1.5000   -1.8660    0.0000 C    0  0  0  0  0  0  0  0  0  0  0  0
    1.0000   -1.0000    0.0000 C    0  0  0  0  0  0  0  0  0  0  0  0
    1.5000   -0.1340    0.0000 C    0  0  0  0  0  0  0  0  0  0  0  0
    1.0000    0.7321    0.0000 C    0  0  0  0  0  0  0  0  0  0  0  0
    0.5000    1.5981    0.0000 C    0  0  0  0  0  0  0  0  0  0  0  0
    1.0000    2.4641    0.0000 Br   0  0  0  0  0  0  0  0  0  0  0  0
   -0.5000    1.5981    0.0000 C    0  0  0  0  0  0  0  0  0  0  0  0
   -1.0000    0.7321    0.0000 C    0  0  0  0  0  0  0  0  0  0  0  0
   -2.0000    0.7321    0.0000 C    0  0  0  0  0  0  0  0  0  0  0  0
   -2.5000    1.5981    0.0000 C    0  0  0  0  0  0  0  0  0  0  0  0
   -3.5000    1.5981    0.0000 C    0  0  0  0  0  0  0  0  0  0  0  0
   -4.3660    1.0981    0.0000 F    0  0  0  0  0  0  0  0  0  0  0  0
   -3.5000    0.5981    0.0000 F    0  0  0  0  0  0  0  0  0  0  0  0
   -4.0000    2.4641    0.0000 F    0  0  0  0  0  0  0  0  0  0  0  0
   -2.0000    2.4641    0.0000 C    0  0  0  0  0  0  0  0  0  0  0  0
   -1.0000    2.4641    0.0000 C    0  0  0  0  0  0  0  0  0  0  0  0
    2.5000   -0.1340    0.0000 C    0  0  0  0  0  0  0  0  0  0  0  0
    2.5000   -1.1340    0.0000 O    0  0  0  0  0  0  0  0  0  0  0  0
    3.5000   -0.1340    0.0000 C    0  0  0  0  0  0  0  0  0  0  0  0
    4.0000    0.7321    0.0000 C    0  0  0  0  0  0  0  0  0  0  0  0
    5.0000    0.7321    0.0000 C    0  0  0  0  0  0  0  0  0  0  0  0
    5.5000   -0.1340    0.0000 C    0  0  0  0  0  0  0  0  0  0  0  0
    5.0000   -1.0000    0.0000 C    0  0  0  0  0  0  0  0  0  0  0  0
    4.0000   -1.0000    0.0000 C    0  0  0  0  0  0  0  0  0  0  0  0
    2.5000    0.8660    0.0000 C    0  0  0  0  0  0  0  0  0  0  0  0
    1.6340    1.3660    0.0000 C    0  0  0  0  0  0  0  0  0  0  0  0
    1.6340    2.3660    0.0000 C    0  0  0  0  0  0  0  0  0  0  0  0
    2.5000    2.8660    0.0000 C    0  0  0  0  0  0  0  0  0  0  0  0
    3.3660    2.3660    0.0000 C    0  0  0  0  0  0  0  0  0  0  0  0
    3.3660    1.3660    0.0000 C    0  0  0  0  0  0  0  0  0  0  0  0
    0.0000   -1.0000    0.0000 P    0  0  0  0  0  0  0  0  0  0  0  0
    0.0000   -2.0000    0.0000 C    0  0  0  0  0  0  0  0  0  0  0  0
   -0.8660   -2.5000    0.0000 C    0  0  0  0  0  0  0  0  0  0  0  0
   -0.8660   -3.5000    0.0000 C    0  0  0  0  0  0  0  0  0  0  0  0
    0.0000   -4.0000    0.0000 C    0  0  0  0  0  0  0  0  0  0  0  0
    0.8660   -3.5000    0.0000 C    0  0  0  0  0  0  0  0  0  0  0  0
    0.8660   -2.5000    0.0000 C    0  0  0  0  0  0  0  0  0  0  0  0
   -1.0000   -1.0000    0.0000 C    0  0  0  0  0  0  0  0  0  0  0  0
   -1.5000   -0.1340    0.0000 C    0  0  0  0  0  0  0  0  0  0  0  0
   -2.5000   -0.1340    0.0000 C    0  0  0  0  0  0  0  0  0  0  0  0
   -3.0000   -1.0000    0.0000 C    0  0  0  0  0  0  0  0  0  0  0  0
   -2.5000   -1.8660    0.0000 C    0  0  0  0  0  0  0  0  0  0  0  0
   -1.5000   -1.8660    0.0000 C    0  0  0  0  0  0  0  0  0  0  0  0
    0.0000    0.0000    0.0000 O    0  0  0  0  0  0  0  0  0  0  0  0
  1  2  2  0  0  0  0
  2  3  1  0  0  0  0
  2 31  1  0  0  0  0
  3  4  2  0  0  0  0
  3 17  1  0  0  0  0
  4  5  2  0  0  0  0
  5  6  1  0  0  0  0
  5  7  1  0  0  0  0
  7 16  2  0  0  0  0
  7  8  1  0  0  0  0
  8  9  2  0  0  0  0
  9 10  1  0  0  0  0
 10 11  1  0  0  0  0
 10 15  2  0  0  0  0
 11 12  1  0  0  0  0
 11 13  1  0  0  0  0
 11 14  1  0  0  0  0
 15 16  1  0  0  0  0
 17 18  1  0  0  0  0
 17 19  1  0  0  0  0
 17 25  1  0  0  0  0
 19 24  2  0  0  0  0
 19 20  1  0  0  0  0
 20 21  2  0  0  0  0
 21 22  1  0  0  0  0
 22 23  2  0  0  0  0
 23 24  1  0  0  0  0
 25 30  2  0  0  0  0
 25 26  1  0  0  0  0
 26 27  2  0  0  0  0
 27 28  1  0  0  0  0
 28 29  2  0  0  0  0
 29 30  1  0  0  0  0
 31 32  1  0  0  0  0
 31 38  1  0  0  0  0
 31 44  2  0  0  0  0
 32 37  2  0  0  0  0
 32 33  1  0  0  0  0
 33 34  2  0  0  0  0
 34 35  1  0  0  0  0
 35 36  2  0  0  0  0
 36 37  1  0  0  0  0
 38 43  2  0  0  0  0
 38 39  1  0  0  0  0
 39 40  2  0  0  0  0
 40 41  1  0  0  0  0
 41 42  2  0  0  0  0
 42 43  1  0  0  0  0
M  END
> <NMREDATA_VERSION>
1.1

> <NMREDATA_LEVEL>
0

> <NMREDATA_SOLVENT>
CDCl3

> <NMREDATA_FORMULA>
C37H27BrF3O2P

> <NMREDATA_SMILES>
BrC(=C=C(C(c1ccccc1)(c1ccccc1)O)C(=C)P(=O)(c1ccccc1)c1ccccc1)c1ccc(cc1)C(F)(F)F

> <NMREDATA_ASSIGNMENT>
P31, 36.30, 31

> <NMREDATA_1D_31P>
Larmor=202
36.30, L=P31

$$$$
