
 OpenBabel06112616472D

 42 45  0  0  1  0  0  0  0  0999 V2000
   -3.0388    2.3660    0.0000 N    0  0  0  0  0  0  0  0  0  0  0  0
   -3.8479    2.9538    0.0000 C    0  0  0  0  0  0  0  0  0  0  0  0
   -3.7433    3.9483    0.0000 O    0  0  0  0  0  0  0  0  0  0  0  0
   -4.7614    2.5471    0.0000 O    0  0  0  0  0  0  0  0  0  0  0  0
   -5.5704    3.1349    0.0000 C    0  0  0  0  0  0  0  0  0  0  0  0
   -6.5649    3.2394    0.0000 C    0  0  0  0  0  0  0  0  0  0  0  0
   -6.1582    2.3258    0.0000 C    0  0  0  0  0  0  0  0  0  0  0  0
   -5.4659    4.1294    0.0000 C    0  0  0  0  0  0  0  0  0  0  0  0
   -2.0878    2.6750    0.0000 C    0  0  0  0  0  0  0  0  0  0  0  0
   -1.7788    3.6261    0.0000 O    0  0  0  0  0  0  0  0  0  0  0  0
   -1.5000    1.8660    0.0000 C    0  0  0  0  0  0  0  0  0  0  0  0
   -0.5000    1.8660    0.0000 C    0  0  0  0  0  0  0  0  0  0  0  0
    0.0000    1.0000    0.0000 C    0  0  0  0  0  0  0  0  0  0  0  0
    1.0000    1.0000    0.0000 C    0  0  2  0  0  0  0  0  0  0  0  0
    1.0000    2.0000    0.0000 O    0  0  0  0  0  0  0  0  0  0  0  0
    2.0000    1.0000    0.0000 C    0  0  0  0  0  0  0  0  0  0  0  0
    2.5000    0.1340    0.0000 C    0  0  0  0  0  0  0  0  0  0  0  0
    3.5000    0.1340    0.0000 C    0  0  0  0  0  0  0  0  0  0  0  0
    4.0000    1.0000    0.0000 C    0  0  0  0  0  0  0  0  0  0  0  0
    3.5000    1.8660    0.0000 C    0  0  0  0  0  0  0  0  0  0  0  0
    2.5000    1.8660    0.0000 C    0  0  0  0  0  0  0  0  0  0  0  0
    1.0000    0.0000    0.0000 P    0  0  0  0  0  0  0  0  0  0  0  0
    2.0000    0.0000    0.0000 O    0  0  0  0  0  0  0  0  0  0  0  0
    1.0000   -1.0000    0.0000 O    0  0  0  0  0  0  0  0  0  0  0  0
    1.8660   -1.5000    0.0000 C    0  0  0  0  0  0  0  0  0  0  0  0
    2.7321   -1.0000    0.0000 C    0  0  0  0  0  0  0  0  0  0  0  0
    0.0000    0.0000    0.0000 O    0  0  0  0  0  0  0  0  0  0  0  0
   -0.5000   -0.8660    0.0000 C    0  0  0  0  0  0  0  0  0  0  0  0
    0.0000   -1.7321    0.0000 C    0  0  0  0  0  0  0  0  0  0  0  0
    0.0000    2.7321    0.0000 C    0  0  0  0  0  0  0  0  0  0  0  0
   -0.5000    3.5981    0.0000 C    0  0  0  0  0  0  0  0  0  0  0  0
    0.0000    4.4641    0.0000 C    0  0  0  0  0  0  0  0  0  0  0  0
    1.0000    4.4641    0.0000 C    0  0  0  0  0  0  0  0  0  0  0  0
    1.5000    5.3301    0.0000 Br   0  0  0  0  0  0  0  0  0  0  0  0
    1.5000    3.5981    0.0000 C    0  0  0  0  0  0  0  0  0  0  0  0
    1.0000    2.7321    0.0000 C    0  0  0  0  0  0  0  0  0  0  0  0
   -2.0878    1.0570    0.0000 C    0  0  0  0  0  0  0  0  0  0  0  0
   -1.8799    0.0789    0.0000 C    0  0  0  0  0  0  0  0  0  0  0  0
   -2.6230   -0.5903    0.0000 C    0  0  0  0  0  0  0  0  0  0  0  0
   -3.5741   -0.2813    0.0000 C    0  0  0  0  0  0  0  0  0  0  0  0
   -3.7820    0.6969    0.0000 C    0  0  0  0  0  0  0  0  0  0  0  0
   -3.0388    1.3660    0.0000 C    0  0  0  0  0  0  0  0  0  0  0  0
  1 42  1  0  0  0  0
  1  2  1  0  0  0  0
  1  9  1  0  0  0  0
  2  3  2  0  0  0  0
  2  4  1  0  0  0  0
  4  5  1  0  0  0  0
  5  6  1  0  0  0  0
  5  7  1  0  0  0  0
  5  8  1  0  0  0  0
  9 10  2  0  0  0  0
  9 11  1  0  0  0  0
 11 12  2  0  0  0  0
 11 37  1  0  0  0  0
 12 13  1  0  0  0  0
 12 30  1  0  0  0  0
 13 14  1  0  0  0  0
 14 15  1  1  0  0  0
 14 16  1  0  0  0  0
 14 22  1  0  0  0  0
 16 21  2  0  0  0  0
 16 17  1  0  0  0  0
 17 18  2  0  0  0  0
 18 19  1  0  0  0  0
 19 20  2  0  0  0  0
 20 21  1  0  0  0  0
 22 23  2  0  0  0  0
 22 24  1  0  0  0  0
 22 27  1  0  0  0  0
 24 25  1  0  0  0  0
 25 26  1  0  0  0  0
 27 28  1  0  0  0  0
 28 29  1  0  0  0  0
 30 36  2  0  0  0  0
 30 31  1  0  0  0  0
 31 32  2  0  0  0  0
 32 33  1  0  0  0  0
 33 34  1  0  0  0  0
 33 35  2  0  0  0  0
 35 36  1  0  0  0  0
 37 42  2  0  0  0  0
 37 38  1  0  0  0  0
 38 39  2  0  0  0  0
 39 40  1  0  0  0  0
 40 41  2  0  0  0  0
 41 42  1  0  0  0  0
M  END
> <NMREDATA_VERSION>
1.1

> <NMREDATA_LEVEL>
0

> <NMREDATA_SOLVENT>
CDCl3

> <NMREDATA_FORMULA>
C32H35BrNO7P

> <NMREDATA_SMILES>
CCOP(=O)([C@@](c1ccccc1)(C/C(=C\1/C(=O)N(c2c1cccc2)C(=O)OC(C)(C)C)/c1ccc(cc1)Br)O)OCC

> <NMREDATA_ASSIGNMENT>
P22, 21.49, 22

> <NMREDATA_1D_31P>
Larmor=162
21.49, L=P22

$$$$
