
 OpenBabel06112616462D

 37 43  0  0  0  0  0  0  0  0999 V2000
   -2.5535    1.4750    0.0000 C   0  0  0  0  0  0  0  0  0  0  0  0
   -1.7024    1.9662    0.0000 C   0  0  0  0  0  0  0  0  0  0  0  0
   -0.8512    1.4745    0.0000 C   0  0  0  0  0  0  0  0  0  0  0  0
    0.0004    1.9661    0.0000 C   0  0  0  0  0  0  0  0  0  0  0  0
    0.0003    2.9492    0.0000 C   0  0  0  0  0  0  0  0  0  0  0  0
    0.8513    3.4406    0.0000 P   0  0  0  0  0  0  0  0  0  0  0  0
    0.4515    4.3383    0.0000 C   0  0  0  0  0  0  0  0  0  0  0  0
    1.0291    5.1333    0.0000 C   0  0  0  0  0  0  0  0  0  0  0  0
    0.6293    6.0310    0.0000 C   0  0  0  0  0  0  0  0  0  0  0  0
   -0.3480    6.1336    0.0000 C   0  0  0  0  0  0  0  0  0  0  0  0
   -0.9255    5.3386    0.0000 C   0  0  0  0  0  0  0  0  0  0  0  0
   -0.5258    4.4409    0.0000 C   0  0  0  0  0  0  0  0  0  0  0  0
    1.8286    3.3379    0.0000 C   0  0  0  0  0  0  0  0  0  0  0  0
    2.2283    2.4402    0.0000 C   0  0  0  0  0  0  0  0  0  0  0  0
    3.2056    2.3376    0.0000 C   0  0  0  0  0  0  0  0  0  0  0  0
    3.7832    3.1326    0.0000 C   0  0  0  0  0  0  0  0  0  0  0  0
    3.3834    4.0303    0.0000 C   0  0  0  0  0  0  0  0  0  0  0  0
    2.4061    4.1330    0.0000 C   0  0  0  0  0  0  0  0  0  0  0  0
   -0.8507    3.4405    0.0000 C   0  0  0  0  0  0  0  0  0  0  0  0
   -0.8507    4.4238    0.0000 C   0  0  0  0  0  0  0  0  0  0  0  0
   -1.7022    4.9155    0.0000 C   0  0  0  0  0  0  0  0  0  0  0  0
   -2.5538    4.4239    0.0000 C   0  0  0  0  0  0  0  0  0  0  0  0
   -2.5538    3.4406    0.0000 C   0  0  0  0  0  0  0  0  0  0  0  0
   -1.7023    2.9489    0.0000 C   0  0  0  0  0  0  0  0  0  0  0  0
    0.8514    1.4747    0.0000 C   0  0  0  0  0  0  0  0  0  0  0  0
    1.7174    1.9748    0.0000 O   0  0  0  0  0  0  0  0  0  0  0  0
    0.8516    0.4916    0.0000 C   0  0  0  0  0  0  0  0  0  0  0  0
    1.7029   -0.0002    0.0000 C   0  0  0  0  0  0  0  0  0  0  0  0
    1.7027   -0.9829    0.0000 C   0  0  0  0  0  0  0  0  0  0  0  0
    0.8512   -1.4745    0.0000 C   0  0  0  0  0  0  0  0  0  0  0  0
    0.0001   -0.9831    0.0000 C   0  0  0  0  0  0  0  0  0  0  0  0
    0.0000    0.0000    0.0000 C   0  0  0  0  0  0  0  0  0  0  0  0
   -2.4508    0.4977    0.0000 C   0  0  0  0  0  0  0  0  0  0  0  0
   -3.2459   -0.0799    0.0000 C   0  0  0  0  0  0  0  0  0  0  0  0
   -4.1436    0.3198    0.0000 C   0  0  0  0  0  0  0  0  0  0  0  0
   -4.2462    1.2971    0.0000 C   0  0  0  0  0  0  0  0  0  0  0  0
   -3.4512    1.8747    0.0000 C   0  0  0  0  0  0  0  0  0  0  0  0
  1 37  2  0  0  0  0
  1  2  1  0  0  0  0
  1 33  1  0  0  0  0
  2 24  2  0  0  0  0
  2  3  1  0  0  0  0
  3 32  1  0  0  0  0
  3  4  2  0  0  0  0
  4  5  1  0  0  0  0
  4 25  1  0  0  0  0
  5  6  1  0  0  0  0
  5 19  2  0  0  0  0
  6  7  1  0  0  0  0
  6 13  1  0  0  0  0
  7 12  2  0  0  0  0
  7  8  1  0  0  0  0
  8  9  2  0  0  0  0
  9 10  1  0  0  0  0
 10 11  2  0  0  0  0
 11 12  1  0  0  0  0
 13 18  2  0  0  0  0
 13 14  1  0  0  0  0
 14 15  2  0  0  0  0
 15 16  1  0  0  0  0
 16 17  2  0  0  0  0
 17 18  1  0  0  0  0
 19 24  1  0  0  0  0
 19 20  1  0  0  0  0
 20 21  2  0  0  0  0
 21 22  1  0  0  0  0
 22 23  2  0  0  0  0
 23 24  1  0  0  0  0
 25 26  2  0  0  0  0
 25 27  1  0  0  0  0
 27 32  2  0  0  0  0
 27 28  1  0  0  0  0
 28 29  2  0  0  0  0
 29 30  1  0  0  0  0
 30 31  2  0  0  0  0
 31 32  1  0  0  0  0
 33 34  2  0  0  0  0
 34 35  1  0  0  0  0
 35 36  2  0  0  0  0
 36 37  1  0  0  0  0
M  END
> <NMREDATA_VERSION>
1.1

> <NMREDATA_LEVEL>
0

> <NMREDATA_SOLVENT>
CDCl3

> <NMREDATA_FORMULA>
C35H23OP

> <NMREDATA_SMILES>
O=C1c2ccccc2-c2c1c(P(c1ccccc1)c1ccccc1)c1c(c2c2ccccc2)cccc1

> <NMREDATA_ASSIGNMENT>
P6, -16.10, 6

> <NMREDATA_1D_31P>
Larmor=202
-16.10, L=P6

$$$$
