
 OpenBabel06112616482D

 51 59  0  0  1  0  0  0  0  0999 V2000
   -0.6518    1.5735    0.0000 C    0  0  0  0  0  0  0  0  0  0  0  0
    0.1284    0.9749    0.0000 C    0  0  0  0  0  0  0  0  0  0  0  0
    1.0368    1.3512    0.0000 Si   0  0  3  0  0  0  0  0  0  0  0  0
    0.5452    2.2028    0.0000 O    0  0  0  0  0  0  0  0  0  0  0  0
    0.7997    3.1526    0.0000 C    0  0  0  0  0  0  0  0  0  0  0  0
   -0.0519    3.6443    0.0000 C    0  0  0  0  0  0  0  0  0  0  0  0
   -1.7551    2.6610    0.0000 P    0  0  0  0  0  0  0  0  0  0  0  0
   -2.6067    3.1526    0.0000 C    0  0  0  0  0  0  0  0  0  0  0  0
   -3.4583    2.6610    0.0000 C    0  0  0  0  0  0  0  0  0  0  0  0
   -4.3099    3.1526    0.0000 C    0  0  0  0  0  0  0  0  0  0  0  0
   -4.3099    4.1360    0.0000 C    0  0  0  0  0  0  0  0  0  0  0  0
   -3.4583    4.6276    0.0000 C    0  0  0  0  0  0  0  0  0  0  0  0
   -2.6067    4.1360    0.0000 C    0  0  0  0  0  0  0  0  0  0  0  0
   -1.7551    1.6776    0.0000 C    0  0  0  0  0  0  0  0  0  0  0  0
   -0.9035    1.1860    0.0000 C    0  0  0  0  0  0  0  0  0  0  0  0
   -0.9035    0.2026    0.0000 C    0  0  0  0  0  0  0  0  0  0  0  0
   -1.7551   -0.2890    0.0000 C    0  0  0  0  0  0  0  0  0  0  0  0
   -2.6067    0.2026    0.0000 C    0  0  0  0  0  0  0  0  0  0  0  0
   -2.6067    1.1860    0.0000 C    0  0  0  0  0  0  0  0  0  0  0  0
   -0.0519    4.6276    0.0000 C    0  0  0  0  0  0  0  0  0  0  0  0
    0.7997    5.1193    0.0000 C    0  0  0  0  0  0  0  0  0  0  0  0
    0.7997    6.1026    0.0000 C    0  0  0  0  0  0  0  0  0  0  0  0
    1.6513    6.5943    0.0000 C    0  0  0  0  0  0  0  0  0  0  0  0
    2.5029    6.1026    0.0000 C    0  0  0  0  0  0  0  0  0  0  0  0
    2.5029    5.1193    0.0000 C    0  0  0  0  0  0  0  0  0  0  0  0
    1.6513    4.6276    0.0000 C    0  0  0  0  0  0  0  0  0  0  0  0
    1.6513    3.6443    0.0000 C    0  0  0  0  0  0  0  0  0  0  0  0
    2.6011    3.3898    0.0000 C    0  0  0  0  0  0  0  0  0  0  0  0
    3.0928    2.5382    0.0000 C    0  0  0  0  0  0  0  0  0  0  0  0
    4.0761    2.5382    0.0000 C    0  0  0  0  0  0  0  0  0  0  0  0
    4.5678    3.3898    0.0000 C    0  0  0  0  0  0  0  0  0  0  0  0
    4.0761    4.2414    0.0000 C    0  0  0  0  0  0  0  0  0  0  0  0
    4.5678    5.0930    0.0000 C    0  0  0  0  0  0  0  0  0  0  0  0
    4.0761    5.9446    0.0000 C    0  0  0  0  0  0  0  0  0  0  0  0
    3.0928    5.9446    0.0000 C    0  0  0  0  0  0  0  0  0  0  0  0
    2.6011    5.0930    0.0000 C    0  0  0  0  0  0  0  0  0  0  0  0
    3.0928    4.2414    0.0000 C    0  0  0  0  0  0  0  0  0  0  0  0
    2.8383    1.5884    0.0000 C    0  0  2  0  0  0  0  0  0  0  0  0
    3.6184    0.9898    0.0000 C    0  0  0  0  0  0  0  0  0  0  0  0
    4.5269    1.3661    0.0000 C    0  0  0  0  0  0  0  0  0  0  0  0
    5.3070    0.7675    0.0000 C    0  0  0  0  0  0  0  0  0  0  0  0
    5.1786   -0.2075    0.0000 C    0  0  0  0  0  0  0  0  0  0  0  0
    4.2702   -0.5838    0.0000 C    0  0  0  0  0  0  0  0  0  0  0  0
    3.4900    0.0149    0.0000 C    0  0  0  0  0  0  0  0  0  0  0  0
    1.9867    1.0967    0.0000 O    0  0  0  0  0  0  0  0  0  0  0  0
    0.9085    0.3763    0.0000 C    0  0  0  0  0  0  0  0  0  0  0  0
    1.6886   -0.2223    0.0000 C    0  0  0  0  0  0  0  0  0  0  0  0
    1.5603   -1.1972    0.0000 C    0  0  0  0  0  0  0  0  0  0  0  0
    0.6518   -1.5735    0.0000 C    0  0  0  0  0  0  0  0  0  0  0  0
   -0.1284   -0.9749    0.0000 C    0  0  0  0  0  0  0  0  0  0  0  0
    0.0000    0.0000    0.0000 C    0  0  0  0  0  0  0  0  0  0  0  0
  1  2  2  0  0  0  0
  2  3  1  0  0  0  0
  3 45  1  0  0  0  0
  3  4  1  0  0  0  0
  3 46  1  0  0  0  0
  4  5  1  0  0  0  0
  5 27  2  0  0  0  0
  5  6  1  0  0  0  0
  6  7  1  0  0  0  0
  6 20  2  0  0  0  0
  7  8  1  0  0  0  0
  7 14  1  0  0  0  0
  8 13  2  0  0  0  0
  8  9  1  0  0  0  0
  9 10  2  0  0  0  0
 10 11  1  0  0  0  0
 11 12  2  0  0  0  0
 12 13  1  0  0  0  0
 14 19  2  0  0  0  0
 14 15  1  0  0  0  0
 15 16  2  0  0  0  0
 16 17  1  0  0  0  0
 17 18  2  0  0  0  0
 18 19  1  0  0  0  0
 20 21  1  0  0  0  0
 21 26  2  0  0  0  0
 21 22  1  0  0  0  0
 22 23  2  0  0  0  0
 23 24  1  0  0  0  0
 24 25  2  0  0  0  0
 25 26  1  0  0  0  0
 26 27  1  0  0  0  0
 27 28  1  0  0  0  0
 28 37  2  0  0  0  0
 28 29  1  0  0  0  0
 29 30  2  0  0  0  0
 29 38  1  0  0  0  0
 30 31  1  0  0  0  0
 31 32  2  0  0  0  0
 32 37  1  0  0  0  0
 32 33  1  0  0  0  0
 33 34  2  0  0  0  0
 34 35  1  0  0  0  0
 35 36  2  0  0  0  0
 36 37  1  0  0  0  0
 38 39  1  6  0  0  0
 38 45  1  0  0  0  0
 39 44  2  0  0  0  0
 39 40  1  0  0  0  0
 40 41  2  0  0  0  0
 41 42  1  0  0  0  0
 42 43  2  0  0  0  0
 43 44  1  0  0  0  0
 46 51  2  0  0  0  0
 46 47  1  0  0  0  0
 47 48  2  0  0  0  0
 48 49  1  0  0  0  0
 49 50  2  0  0  0  0
 50 51  1  0  0  0  0
M  END
> <NMREDATA_VERSION>
1.1

> <NMREDATA_LEVEL>
0

> <NMREDATA_SOLVENT>
CDCl3

> <NMREDATA_FORMULA>
C47H35O2PSi

> <NMREDATA_SMILES>
C=C[Si]1(O[C@@H](c2ccccc2)c2ccc3c(c2-c2c(O1)c(cc1c2cccc1)P(c1ccccc1)c1ccccc1)cccc3)c1ccccc1

> <NMREDATA_ASSIGNMENT>
P7, -14.69, 7

> <NMREDATA_1D_31P>
Larmor=202
-14.69, L=P7

$$$$
