
 OpenBabel06112616442D

 24 27  0  0  0  0  0  0  0  0999 V2000
    3.5491    0.1910    0.0000 P   0  0  0  0  0  0  0  0  0  0  0  0
    4.4152   -0.3090    0.0000 C   0  0  0  0  0  0  0  0  0  0  0  0
    5.2812    0.1910    0.0000 C   0  0  0  0  0  0  0  0  0  0  0  0
    6.1472   -0.3090    0.0000 C   0  0  0  0  0  0  0  0  0  0  0  0
    6.1472   -1.3090    0.0000 C   0  0  0  0  0  0  0  0  0  0  0  0
    5.2812   -1.8090    0.0000 C   0  0  0  0  0  0  0  0  0  0  0  0
    4.4152   -1.3090    0.0000 C   0  0  0  0  0  0  0  0  0  0  0  0
    3.5491    1.1910    0.0000 C   0  0  0  0  0  0  0  0  0  0  0  0
    2.6831    1.6910    0.0000 C   0  0  0  0  0  0  0  0  0  0  0  0
    2.6831    2.6910    0.0000 C   0  0  0  0  0  0  0  0  0  0  0  0
    3.5491    3.1910    0.0000 C   0  0  0  0  0  0  0  0  0  0  0  0
    4.4152    2.6910    0.0000 C   0  0  0  0  0  0  0  0  0  0  0  0
    4.4152    1.6910    0.0000 C   0  0  0  0  0  0  0  0  0  0  0  0
    2.6831   -0.3090    0.0000 C   0  0  0  0  0  0  0  0  0  0  0  0
    1.8171    0.1910    0.0000 C   0  0  0  0  0  0  0  0  0  0  0  0
    0.9511   -0.3090    0.0000 C   0  0  0  0  0  0  0  0  0  0  0  0
    0.9511   -1.3090    0.0000 C   0  0  0  0  0  0  0  0  0  0  0  0
    1.8171   -1.8090    0.0000 C   0  0  0  0  0  0  0  0  0  0  0  0
    2.6831   -1.3090    0.0000 C   0  0  0  0  0  0  0  0  0  0  0  0
    3.5491   -1.8090    0.0000 C   0  0  0  0  0  0  0  0  0  0  0  0
    3.5491   -2.8090    0.0000 O   0  0  0  0  0  0  0  0  0  0  0  0
    0.0000   -1.6180    0.0000 C   0  0  0  0  0  0  0  0  0  0  0  0
   -0.5878   -0.8090    0.0000 C   0  0  0  0  0  0  0  0  0  0  0  0
    0.0000    0.0000    0.0000 C   0  0  0  0  0  0  0  0  0  0  0  0
  1  2  1  0  0  0  0
  1  8  1  0  0  0  0
  1 14  1  0  0  0  0
  2  7  2  0  0  0  0
  2  3  1  0  0  0  0
  3  4  2  0  0  0  0
  4  5  1  0  0  0  0
  5  6  2  0  0  0  0
  6  7  1  0  0  0  0
  8 13  2  0  0  0  0
  8  9  1  0  0  0  0
  9 10  2  0  0  0  0
 10 11  1  0  0  0  0
 11 12  2  0  0  0  0
 12 13  1  0  0  0  0
 14 19  2  0  0  0  0
 14 15  1  0  0  0  0
 15 16  2  0  0  0  0
 16 24  1  0  0  0  0
 16 17  1  0  0  0  0
 17 18  2  0  0  0  0
 17 22  1  0  0  0  0
 18 19  1  0  0  0  0
 19 20  1  0  0  0  0
 20 21  2  0  0  0  0
 22 23  1  0  0  0  0
 23 24  1  0  0  0  0
M  END
> <NMREDATA_VERSION>
1.1

> <NMREDATA_LEVEL>
0

> <NMREDATA_SOLVENT>
CDCl3

> <NMREDATA_FORMULA>
C22H19OP

> <NMREDATA_SMILES>
O=Cc1cc2CCCc2cc1P(c1ccccc1)c1ccccc1

> <NMREDATA_ASSIGNMENT>
P1, -12.10, 1

> <NMREDATA_1D_31P>
Larmor=162
-12.10, L=P1

$$$$
