
 OpenBabel06112616472D

 27 29  0  0  0  0  0  0  0  0999 V2000
   -3.9478   -4.6646    0.0000 C   0  0  0  0  0  0  0  0  0  0  0  0
   -4.0523   -3.6701    0.0000 C   0  0  0  0  0  0  0  0  0  0  0  0
   -4.9659   -3.2634    0.0000 C   0  0  0  0  0  0  0  0  0  0  0  0
   -5.0704   -2.2688    0.0000 C   0  0  0  0  0  0  0  0  0  0  0  0
   -4.2614   -1.6810    0.0000 C   0  0  0  0  0  0  0  0  0  0  0  0
   -3.3479   -2.0878    0.0000 C   0  0  0  0  0  0  0  0  0  0  0  0
   -2.5388   -1.5000    0.0000 N   0  0  0  0  0  0  0  0  0  0  0  0
   -2.5388   -0.5000    0.0000 N   0  0  0  0  0  0  0  0  0  0  0  0
   -1.5878   -0.1910    0.0000 N   0  0  0  0  0  0  0  0  0  0  0  0
   -1.0000   -1.0000    0.0000 C   0  0  0  0  0  0  0  0  0  0  0  0
    0.0000   -1.0000    0.0000 P   0  0  0  0  0  0  0  0  0  0  0  0
    0.0000   -2.0000    0.0000 O   0  0  0  0  0  0  0  0  0  0  0  0
    1.0000   -1.0000    0.0000 O   0  0  0  0  0  0  0  0  0  0  0  0
    1.5000   -0.1340    0.0000 C   0  0  0  0  0  0  0  0  0  0  0  0
    0.0000    0.0000    0.0000 O   0  0  0  0  0  0  0  0  0  0  0  0
    0.8660    0.5000    0.0000 C   0  0  0  0  0  0  0  0  0  0  0  0
   -1.5878   -1.8090    0.0000 C   0  0  0  0  0  0  0  0  0  0  0  0
   -1.2788   -2.7601    0.0000 C   0  0  0  0  0  0  0  0  0  0  0  0
   -0.3006   -2.9680    0.0000 C   0  0  0  0  0  0  0  0  0  0  0  0
    0.0084   -3.9190    0.0000 C   0  0  0  0  0  0  0  0  0  0  0  0
   -0.6607   -4.6622    0.0000 C   0  0  0  0  0  0  0  0  0  0  0  0
   -1.6389   -4.4543    0.0000 C   0  0  0  0  0  0  0  0  0  0  0  0
   -1.9479   -3.5032    0.0000 C   0  0  0  0  0  0  0  0  0  0  0  0
   -3.2433   -3.0823    0.0000 C   0  0  0  0  0  0  0  0  0  0  0  0
   -3.3600   -5.4736    0.0000 F   0  0  0  0  0  0  0  0  0  0  0  0
   -2.9533   -4.5601    0.0000 F   0  0  0  0  0  0  0  0  0  0  0  0
   -4.7568   -5.2524    0.0000 F   0  0  0  0  0  0  0  0  0  0  0  0
  1  2  1  0  0  0  0
  1 25  1  0  0  0  0
  1 26  1  0  0  0  0
  1 27  1  0  0  0  0
  2 24  2  0  0  0  0
  2  3  1  0  0  0  0
  3  4  2  0  0  0  0
  4  5  1  0  0  0  0
  5  6  2  0  0  0  0
  6  7  1  0  0  0  0
  6 24  1  0  0  0  0
  7 17  1  0  0  0  0
  7  8  1  0  0  0  0
  8  9  2  0  0  0  0
  9 10  1  0  0  0  0
 10 11  1  0  0  0  0
 10 17  2  0  0  0  0
 11 12  2  0  0  0  0
 11 13  1  0  0  0  0
 11 15  1  0  0  0  0
 13 14  1  0  0  0  0
 15 16  1  0  0  0  0
 17 18  1  0  0  0  0
 18 23  2  0  0  0  0
 18 19  1  0  0  0  0
 19 20  2  0  0  0  0
 20 21  1  0  0  0  0
 21 22  2  0  0  0  0
 22 23  1  0  0  0  0
M  END
> <NMREDATA_VERSION>
1.1

> <NMREDATA_LEVEL>
0

> <NMREDATA_SOLVENT>
CDCl3

> <NMREDATA_FORMULA>
C17H15F3N3O3P

> <NMREDATA_SMILES>
COP(=O)(c1nnn(c1c1ccccc1)c1cccc(c1)C(F)(F)F)OC

> <NMREDATA_ASSIGNMENT>
P11, 9.09, 11

> <NMREDATA_1D_31P>
Larmor=162
9.09, L=P11

$$$$
