
 OpenBabel06112616432D

 48 55  0  0  1  0  0  0  0  0999 V2000
    2.4308    7.2202    0.0000 C   0  0  0  0  0  0  0  0  0  0  0  0
    3.1739    6.5511    0.0000 C   0  0  2  0  0  0  0  0  0  0  0  0
    2.1794    6.6556    0.0000 C   0  0  0  0  0  0  0  0  0  0  0  0
    1.5916    5.8466    0.0000 C   0  0  0  0  0  0  0  0  0  0  0  0
    1.9983    4.9330    0.0000 C   0  0  3  0  0  0  0  0  0  0  0  0
    1.4106    4.1240    0.0000 C   0  0  0  0  0  0  0  0  0  0  0  0
    0.4160    4.2285    0.0000 C   0  0  0  0  0  0  0  0  0  0  0  0
   -0.1718    3.4195    0.0000 C   0  0  0  0  0  0  0  0  0  0  0  0
    0.2350    2.5060    0.0000 C   0  0  0  0  0  0  0  0  0  0  0  0
   -0.3528    1.6970    0.0000 O   0  0  0  0  0  0  0  0  0  0  0  0
    0.0539    0.7834    0.0000 C   0  0  0  0  0  0  0  0  0  0  0  0
    1.0485    0.6789    0.0000 O   0  0  0  0  0  0  0  0  0  0  0  0
   -0.5338   -0.0256    0.0000 C   0  0  0  0  0  0  0  0  0  0  0  0
   -1.5284    0.0789    0.0000 C   0  0  0  0  0  0  0  0  0  0  0  0
   -2.1162   -0.7301    0.0000 C   0  0  0  0  0  0  0  0  0  0  0  0
   -1.7094   -1.6436    0.0000 C   0  0  0  0  0  0  0  0  0  0  0  0
   -2.2972   -2.4526    0.0000 C   0  0  0  0  0  0  0  0  0  0  0  0
   -3.2917   -2.3481    0.0000 O   0  0  0  0  0  0  0  0  0  0  0  0
   -1.8905   -3.3662    0.0000 N   0  0  0  0  0  0  0  0  0  0  0  0
   -0.8959   -3.4707    0.0000 C   0  0  0  0  0  0  0  0  0  0  0  0
   -0.4892   -4.3843    0.0000 C   0  0  0  0  0  0  0  0  0  0  0  0
   -1.0770   -5.1933    0.0000 P   0  0  0  0  0  0  0  0  0  0  0  0
   -0.2680   -5.7811    0.0000 O   0  0  0  0  0  0  0  0  0  0  0  0
   -1.6648   -6.0023    0.0000 C   0  0  0  0  0  0  0  0  0  0  0  0
   -2.6593   -5.8978    0.0000 C   0  0  0  0  0  0  0  0  0  0  0  0
   -3.2471   -6.7068    0.0000 C   0  0  0  0  0  0  0  0  0  0  0  0
   -2.8403   -7.6203    0.0000 C   0  0  0  0  0  0  0  0  0  0  0  0
   -1.8458   -7.7249    0.0000 C   0  0  0  0  0  0  0  0  0  0  0  0
   -1.2580   -6.9158    0.0000 C   0  0  0  0  0  0  0  0  0  0  0  0
   -1.8860   -4.6055    0.0000 C   0  0  0  0  0  0  0  0  0  0  0  0
   -1.7815   -3.6110    0.0000 C   0  0  0  0  0  0  0  0  0  0  0  0
   -2.5905   -3.0232    0.0000 C   0  0  0  0  0  0  0  0  0  0  0  0
   -3.5040   -3.4299    0.0000 C   0  0  0  0  0  0  0  0  0  0  0  0
   -3.6086   -4.4244    0.0000 C   0  0  0  0  0  0  0  0  0  0  0  0
   -2.7996   -5.0122    0.0000 C   0  0  0  0  0  0  0  0  0  0  0  0
   -0.3082   -2.6617    0.0000 C   0  0  0  0  0  0  0  0  0  0  0  0
   -0.7149   -1.7482    0.0000 C   0  0  0  0  0  0  0  0  0  0  0  0
   -0.1271   -0.9391    0.0000 C   0  0  0  0  0  0  0  0  0  0  0  0
    1.2295    2.4015    0.0000 C   0  0  0  0  0  0  0  0  0  0  0  0
    1.8173    3.2105    0.0000 C   0  0  0  0  0  0  0  0  0  0  0  0
    2.8118    3.1059    0.0000 C   0  0  0  0  0  0  0  0  0  0  0  0
    3.3996    3.9150    0.0000 C   0  0  0  0  0  0  0  0  0  0  0  0
    2.9929    4.8285    0.0000 C   0  0  3  0  0  0  0  0  0  0  0  0
    3.5806    5.6375    0.0000 C   0  0  3  0  0  0  0  0  0  0  0  0
    4.5752    5.7421    0.0000 C   0  0  0  0  0  0  0  0  0  0  0  0
    4.7831    6.7202    0.0000 C   0  0  0  0  0  0  0  0  0  0  0  0
    3.9171    7.2202    0.0000 C   0  0  0  0  0  0  0  0  0  0  0  0
    3.8125    8.2147    0.0000 O   0  0  0  0  0  0  0  0  0  0  0  0
  2  1  1  1  0  0  0
  2 44  1  0  0  0  0
  2 47  1  0  0  0  0
  2  3  1  0  0  0  0
  3  4  1  0  0  0  0
  4  5  1  0  0  0  0
  5 43  1  0  0  0  0
  5  6  1  0  0  0  0
  6 40  2  0  0  0  0
  6  7  1  0  0  0  0
  7  8  2  0  0  0  0
  8  9  1  0  0  0  0
  9 10  1  0  0  0  0
  9 39  2  0  0  0  0
 10 11  1  0  0  0  0
 11 12  2  0  0  0  0
 11 13  1  0  0  0  0
 13 38  2  0  0  0  0
 13 14  1  0  0  0  0
 14 15  2  0  0  0  0
 15 16  1  0  0  0  0
 16 37  2  0  0  0  0
 16 17  1  0  0  0  0
 17 18  2  0  0  0  0
 17 19  1  0  0  0  0
 19 20  1  0  0  0  0
 20 21  1  0  0  0  0
 20 36  2  0  0  0  0
 21 22  1  0  0  0  0
 22 23  2  0  0  0  0
 22 24  1  0  0  0  0
 22 30  1  0  0  0  0
 24 29  2  0  0  0  0
 24 25  1  0  0  0  0
 25 26  2  0  0  0  0
 26 27  1  0  0  0  0
 27 28  2  0  0  0  0
 28 29  1  0  0  0  0
 30 35  2  0  0  0  0
 30 31  1  0  0  0  0
 31 32  2  0  0  0  0
 32 33  1  0  0  0  0
 33 34  2  0  0  0  0
 34 35  1  0  0  0  0
 36 37  1  0  0  0  0
 37 38  1  0  0  0  0
 39 40  1  0  0  0  0
 40 41  1  0  0  0  0
 41 42  1  0  0  0  0
 42 43  1  0  0  0  0
 43 44  1  0  0  0  0
 44 45  1  0  0  0  0
 45 46  1  0  0  0  0
 46 47  1  0  0  0  0
 47 48  2  0  0  0  0
M  END
> <NMREDATA_VERSION>
1.1

> <NMREDATA_LEVEL>
0

> <NMREDATA_SOLVENT>
DMSO-d6

> <NMREDATA_FORMULA>
C41H38NO5P

> <NMREDATA_SMILES>
O=C1CCC2[C@]1(C)CCC1C2CCc2c1ccc(c2)OC(=O)c1ccc2c(c1)cc([nH]c2=O)CP(=O)(c1ccccc1)c1ccccc1

> <NMREDATA_ASSIGNMENT>
P22, 27.70, 22

> <NMREDATA_1D_31P>
Larmor=202
27.70, L=P22

$$$$
