
 OpenBabel06112616452D

 33 36  0  0  0  0  0  0  0  0999 V2000
    8.9328   -2.3571    0.0000 C   0  0  0  0  0  0  0  0  0  0  0  0
    8.9328   -3.2857    0.0000 C   0  0  0  0  0  0  0  0  0  0  0  0
    8.1286   -3.7500    0.0000 C   0  0  0  0  0  0  0  0  0  0  0  0
    7.3244   -3.2857    0.0000 C   0  0  0  0  0  0  0  0  0  0  0  0
    7.3244   -2.3571    0.0000 C   0  0  0  0  0  0  0  0  0  0  0  0
    8.1286   -1.8929    0.0000 C   0  0  0  0  0  0  0  0  0  0  0  0
   10.5411   -1.4286    0.0000 C   0  0  0  0  0  0  0  0  0  0  0  0
   10.5411   -0.5000    0.0000 C   0  0  0  0  0  0  0  0  0  0  0  0
   11.3453   -0.9643    0.0000 C   0  0  0  0  0  0  0  0  0  0  0  0
   10.5411   -2.3571    0.0000 C   0  0  0  0  0  0  0  0  0  0  0  0
    9.7369   -2.8214    0.0000 O   0  5  0  0  0  0  0  0  0  0  0  0
   11.3453   -2.8214    0.0000 O   0  0  0  0  0  0  0  0  0  0  0  0
    4.8497   -2.7674    0.0000 N   0  0  0  0  0  0  0  0  0  0  0  0
    3.8914   -2.7674    0.0000 P   0  0  0  0  0  0  0  0  0  0  0  0
    3.8914   -3.7258    0.0000 N   0  0  0  0  0  0  0  0  0  0  0  0
    3.1161   -4.2891    0.0000 C   0  0  0  0  0  0  0  0  0  0  0  0
    3.4122   -5.2005    0.0000 C   0  0  0  0  0  0  0  0  0  0  0  0
    4.3706   -5.2005    0.0000 C   0  0  0  0  0  0  0  0  0  0  0  0
    4.6667   -4.2891    0.0000 C   0  0  0  0  0  0  0  0  0  0  0  0
    1.9747   -2.7674    0.0000 N   0  0  0  0  0  0  0  0  0  0  0  0
    1.4114   -1.9921    0.0000 C   0  0  0  0  0  0  0  0  0  0  0  0
    0.5000   -2.2883    0.0000 C   0  0  0  0  0  0  0  0  0  0  0  0
    0.5000   -3.2466    0.0000 C   0  0  0  0  0  0  0  0  0  0  0  0
    1.4114   -3.5427    0.0000 C   0  0  0  0  0  0  0  0  0  0  0  0
    3.8914   -1.8091    0.0000 N   0  3  0  0  0  0  0  0  0  0  0  0
    3.0614   -1.3299    0.0000 C   0  0  0  0  0  0  0  0  0  0  0  0
    2.5823   -0.5000    0.0000 C   0  0  0  0  0  0  0  0  0  0  0  0
    3.5406   -0.5000    0.0000 C   0  0  0  0  0  0  0  0  0  0  0  0
    2.2315   -1.8091    0.0000 C   0  0  0  0  0  0  0  0  0  0  0  0
    5.4130   -1.9921    0.0000 C   0  0  0  0  0  0  0  0  0  0  0  0
    6.3244   -2.2883    0.0000 C   0  0  0  0  0  0  0  0  0  0  0  0
    6.3244   -3.2466    0.0000 C   0  0  0  0  0  0  0  0  0  0  0  0
    5.4130   -3.5427    0.0000 C   0  0  0  0  0  0  0  0  0  0  0  0
  1  6  2  0  0  0  0
  1  2  1  0  0  0  0
  1  7  1  0  0  0  0
  2  3  2  0  0  0  0
  3  4  1  0  0  0  0
  4  5  2  0  0  0  0
  5  6  1  0  0  0  0
  7  9  1  0  0  0  0
  7  8  1  0  0  0  0
  7 10  1  0  0  0  0
  8  9  1  0  0  0  0
 10 11  1  0  0  0  0
 10 12  2  0  0  0  0
 13 33  1  0  0  0  0
 13 14  1  0  0  0  0
 13 30  1  0  0  0  0
 14 15  1  0  0  0  0
 14 20  1  0  0  0  0
 14 25  2  0  0  0  0
 15 19  1  0  0  0  0
 15 16  1  0  0  0  0
 16 17  1  0  0  0  0
 17 18  1  0  0  0  0
 18 19  1  0  0  0  0
 20 24  1  0  0  0  0
 20 21  1  0  0  0  0
 21 22  1  0  0  0  0
 22 23  1  0  0  0  0
 23 24  1  0  0  0  0
 25 26  1  0  0  0  0
 26 27  1  0  0  0  0
 26 28  1  0  0  0  0
 26 29  1  0  0  0  0
 30 31  1  0  0  0  0
 31 32  1  0  0  0  0
 32 33  1  0  0  0  0
M  END
> <NMREDATA_VERSION>
1.1

> <NMREDATA_LEVEL>
0

> <NMREDATA_SOLVENT>
CDCl3

> <NMREDATA_FORMULA>
C26H42N4O2P

> <NMREDATA_SMILES>
CC([NH+]=P(N1CCCC1)(N1CCCC1)N1CCCC1)(C)C.[O-]C(=O)C1(CC1)c1ccccc1

> <NMREDATA_ASSIGNMENT>
P14, 22.50, 14

> <NMREDATA_1D_31P>
Larmor=162
22.50, L=P14

$$$$
