
 OpenBabel06112616472D

 47 51  0  0  0  0  0  0  0  0999 V2000
    0.4020   -1.1353    0.0000 C   0  0  0  0  0  0  0  0  0  0  0  0
   -0.4636   -0.8030    0.0000 C   0  0  0  0  0  0  0  0  0  0  0  0
   -0.9615   -1.5853    0.0000 C   0  0  0  0  0  0  0  0  0  0  0  0
   -1.3706   -0.6103    0.0000 O   0  0  0  0  0  0  0  0  0  0  0  0
   -1.4676    0.3119    0.0000 B   0  0  0  0  0  0  0  0  0  0  0  0
   -2.2706    0.7756    0.0000 C   0  0  0  0  0  0  0  0  0  0  0  0
   -3.0737    0.3119    0.0000 C   0  0  0  0  0  0  0  0  0  0  0  0
   -3.8767    0.7756    0.0000 C   0  0  0  0  0  0  0  0  0  0  0  0
   -4.6797    0.3119    0.0000 C   0  0  0  0  0  0  0  0  0  0  0  0
   -5.4828    0.7756    0.0000 C   0  0  0  0  0  0  0  0  0  0  0  0
   -4.6797   -0.6153    0.0000 C   0  0  0  0  0  0  0  0  0  0  0  0
   -3.8767    1.7029    0.0000 C   0  0  0  0  0  0  0  0  0  0  0  0
   -5.4828    2.6301    0.0000 C   0  0  0  0  0  0  0  0  0  0  0  0
   -6.2858    2.1665    0.0000 C   0  0  0  0  0  0  0  0  0  0  0  0
   -6.2858   -1.5426    0.0000 P   0  0  0  0  0  0  0  0  0  0  0  0
   -7.0889   -2.0062    0.0000 C   0  0  0  0  0  0  0  0  0  0  0  0
   -7.0889   -2.9335    0.0000 C   0  0  0  0  0  0  0  0  0  0  0  0
   -7.8919   -3.3971    0.0000 C   0  0  0  0  0  0  0  0  0  0  0  0
   -8.6949   -2.9335    0.0000 C   0  0  0  0  0  0  0  0  0  0  0  0
   -8.6949   -2.0062    0.0000 C   0  0  0  0  0  0  0  0  0  0  0  0
   -7.8919   -1.5426    0.0000 C   0  0  0  0  0  0  0  0  0  0  0  0
   -5.4828   -2.0062    0.0000 C   0  0  0  0  0  0  0  0  0  0  0  0
   -4.6797   -1.5426    0.0000 C   0  0  0  0  0  0  0  0  0  0  0  0
   -3.8767   -2.0062    0.0000 C   0  0  0  0  0  0  0  0  0  0  0  0
   -3.8767   -2.9335    0.0000 C   0  0  0  0  0  0  0  0  0  0  0  0
   -4.6797   -3.3971    0.0000 C   0  0  0  0  0  0  0  0  0  0  0  0
   -5.4828   -2.9335    0.0000 C   0  0  0  0  0  0  0  0  0  0  0  0
   -7.0889    2.6301    0.0000 C   0  0  0  0  0  0  0  0  0  0  0  0
   -7.8919    2.1665    0.0000 O   0  0  0  0  0  0  0  0  0  0  0  0
   -8.6949    2.6301    0.0000 C   0  0  0  0  0  0  0  0  0  0  0  0
   -9.6222    2.6301    0.0000 C   0  0  0  0  0  0  0  0  0  0  0  0
   -9.1586    1.8271    0.0000 C   0  0  0  0  0  0  0  0  0  0  0  0
   -8.6949    3.5574    0.0000 C   0  0  0  0  0  0  0  0  0  0  0  0
   -7.0889    3.5574    0.0000 C   0  0  0  0  0  0  0  0  0  0  0  0
   -6.2858    4.0210    0.0000 C   0  0  0  0  0  0  0  0  0  0  0  0
   -5.4828    3.5574    0.0000 C   0  0  0  0  0  0  0  0  0  0  0  0
   -4.6797    4.0210    0.0000 O   0  0  0  0  0  0  0  0  0  0  0  0
   -4.6797    4.9483    0.0000 C   0  0  0  0  0  0  0  0  0  0  0  0
   -3.0737    2.1665    0.0000 C   0  0  0  0  0  0  0  0  0  0  0  0
   -3.0737    3.0938    0.0000 C   0  0  0  0  0  0  0  0  0  0  0  0
   -2.2706    3.5574    0.0000 C   0  0  0  0  0  0  0  0  0  0  0  0
   -3.8767    3.5574    0.0000 C   0  0  0  0  0  0  0  0  0  0  0  0
   -2.2706    1.7029    0.0000 C   0  0  0  0  0  0  0  0  0  0  0  0
   -0.6205    0.6891    0.0000 O   0  0  0  0  0  0  0  0  0  0  0  0
    0.0000    0.0000    0.0000 C   0  0  0  0  0  0  0  0  0  0  0  0
    0.8471   -0.3772    0.0000 C   0  0  0  0  0  0  0  0  0  0  0  0
    0.7502    0.5450    0.0000 C   0  0  0  0  0  0  0  0  0  0  0  0
  1  2  1  0  0  0  0
  2 45  1  0  0  0  0
  2  3  1  0  0  0  0
  2  4  1  0  0  0  0
  4  5  1  0  0  0  0
  5  6  1  0  0  0  0
  5 44  1  0  0  0  0
  6 43  2  0  0  0  0
  6  7  1  0  0  0  0
  7  8  2  0  0  0  0
  8  9  1  0  0  0  0
  8 12  1  0  0  0  0
  9 10  1  0  0  0  0
  9 11  1  0  0  0  0
 12 13  1  0  0  0  0
 12 39  2  0  0  0  0
 13 36  2  0  0  0  0
 13 14  1  0  0  0  0
 14 15  1  0  0  0  0
 14 28  2  0  0  0  0
 15 16  1  0  0  0  0
 15 22  1  0  0  0  0
 16 21  1  0  0  0  0
 16 17  1  0  0  0  0
 17 18  1  0  0  0  0
 18 19  1  0  0  0  0
 19 20  1  0  0  0  0
 20 21  1  0  0  0  0
 22 27  1  0  0  0  0
 22 23  1  0  0  0  0
 23 24  1  0  0  0  0
 24 25  1  0  0  0  0
 25 26  1  0  0  0  0
 26 27  1  0  0  0  0
 28 29  1  0  0  0  0
 28 34  1  0  0  0  0
 29 30  1  0  0  0  0
 30 31  1  0  0  0  0
 30 32  1  0  0  0  0
 30 33  1  0  0  0  0
 34 35  2  0  0  0  0
 35 36  1  0  0  0  0
 36 37  1  0  0  0  0
 37 38  1  0  0  0  0
 39 40  1  0  0  0  0
 39 43  1  0  0  0  0
 40 41  1  0  0  0  0
 40 42  1  0  0  0  0
 44 45  1  0  0  0  0
 45 46  1  0  0  0  0
 45 47  1  0  0  0  0
M  END
> <NMREDATA_VERSION>
1.1

> <NMREDATA_LEVEL>
0

> <NMREDATA_SOLVENT>
C6D6

> <NMREDATA_FORMULA>
C41H64BO4P

> <NMREDATA_SMILES>
COc1ccc(c(c1c1c(cc(cc1C(C)C)B1OC(C(O1)(C)C)(C)C)C(C)C)P(C1CCCCC1)C1CCCCC1)OC(C)(C)C

> <NMREDATA_ASSIGNMENT>
P15, -4.50, 15

> <NMREDATA_1D_31P>
Larmor=243
-4.50, L=P15

$$$$
