
 OpenBabel06112616482D

 18 17  0  0  0  0  0  0  0  0999 V2000
   -1.0000    0.7321    0.0000 C    0  0  0  0  0  0  0  0  0  0  0  0
   -1.5000   -0.1340    0.0000 C    0  0  0  0  0  0  0  0  0  0  0  0
   -1.0000   -1.0000    0.0000 O    0  0  0  0  0  0  0  0  0  0  0  0
    0.0000   -1.0000    0.0000 P    0  0  3  0  0  0  0  0  0  0  0  0
    0.0000   -2.0000    0.0000 C    0  0  0  0  0  0  0  0  0  0  0  0
    1.0000   -1.0000    0.0000 C    0  0  0  0  0  0  0  0  0  0  0  0
    2.0000   -1.0000    0.0000 C    0  0  0  0  0  0  0  0  0  0  0  0
    3.0000   -1.0000    0.0000 Si   0  0  0  0  0  0  0  0  0  0  0  0
    3.0000   -2.0000    0.0000 C    0  0  0  0  0  0  0  0  0  0  0  0
    2.1340   -2.5000    0.0000 C    0  0  0  0  0  0  0  0  0  0  0  0
    3.8660   -2.5000    0.0000 C    0  0  0  0  0  0  0  0  0  0  0  0
    4.0000   -1.0000    0.0000 C    0  0  0  0  0  0  0  0  0  0  0  0
    4.5000   -1.8660    0.0000 C    0  0  0  0  0  0  0  0  0  0  0  0
    4.5000   -0.1340    0.0000 C    0  0  0  0  0  0  0  0  0  0  0  0
    3.0000    0.0000    0.0000 C    0  0  0  0  0  0  0  0  0  0  0  0
    3.8660    0.5000    0.0000 C    0  0  0  0  0  0  0  0  0  0  0  0
    2.1340    0.5000    0.0000 C    0  0  0  0  0  0  0  0  0  0  0  0
    0.0000    0.0000    0.0000 O    0  0  0  0  0  0  0  0  0  0  0  0
  1  2  1  0  0  0  0
  2  3  1  0  0  0  0
  3  4  1  0  0  0  0
  4  5  1  0  0  0  0
  4  6  1  0  0  0  0
  4 18  2  0  0  0  0
  6  7  3  0  0  0  0
  7  8  1  0  0  0  0
  8  9  1  0  0  0  0
  8 12  1  0  0  0  0
  8 15  1  0  0  0  0
  9 10  1  0  0  0  0
  9 11  1  0  0  0  0
 12 13  1  0  0  0  0
 12 14  1  0  0  0  0
 15 16  1  0  0  0  0
 15 17  1  0  0  0  0
M  END
> <NMREDATA_VERSION>
1.1

> <NMREDATA_LEVEL>
0

> <NMREDATA_SOLVENT>
CDCl3

> <NMREDATA_FORMULA>
C14H29O2PSi

> <NMREDATA_SMILES>
CCOP(=O)(C#C[Si](C(C)C)(C(C)C)C(C)C)C

> <NMREDATA_ASSIGNMENT>
P4, 16.80, 4

> <NMREDATA_1D_31P>
Larmor=162
16.80, L=P4

$$$$
