
 OpenBabel06112616442D

 41 46  0  0  0  0  0  0  0  0999 V2000
   -1.0000   -1.0000    0.0000 O    0  0  0  0  0  0  0  0  0  0  0  0
    0.0000   -1.0000    0.0000 P    0  0  0  0  0  0  0  0  0  0  0  0
    0.0000   -2.0000    0.0000 C    0  0  0  0  0  0  0  0  0  0  0  0
    0.8660   -2.5000    0.0000 C    0  0  0  0  0  0  0  0  0  0  0  0
    0.8660   -3.5000    0.0000 C    0  0  0  0  0  0  0  0  0  0  0  0
    0.0000   -4.0000    0.0000 C    0  0  0  0  0  0  0  0  0  0  0  0
   -0.8660   -3.5000    0.0000 C    0  0  0  0  0  0  0  0  0  0  0  0
   -0.8660   -2.5000    0.0000 C    0  0  0  0  0  0  0  0  0  0  0  0
    1.0000   -1.0000    0.0000 C    0  0  0  0  0  0  0  0  0  0  0  0
    1.5000   -0.1340    0.0000 C    0  0  0  0  0  0  0  0  0  0  0  0
    2.5000   -0.1340    0.0000 C    0  0  0  0  0  0  0  0  0  0  0  0
    3.0000   -1.0000    0.0000 C    0  0  0  0  0  0  0  0  0  0  0  0
    2.5000   -1.8660    0.0000 C    0  0  0  0  0  0  0  0  0  0  0  0
    1.5000   -1.8660    0.0000 C    0  0  0  0  0  0  0  0  0  0  0  0
    0.0000    0.0000    0.0000 C    0  0  0  0  0  0  0  0  0  0  0  0
    0.8660    0.5000    0.0000 C    0  0  0  0  0  0  0  0  0  0  0  0
    0.8660    1.5000    0.0000 C    0  0  0  0  0  0  0  0  0  0  0  0
    0.0000    2.0000    0.0000 C    0  0  0  0  0  0  0  0  0  0  0  0
   -0.8660    1.5000    0.0000 C    0  0  0  0  0  0  0  0  0  0  0  0
   -0.8660    0.5000    0.0000 C    0  0  0  0  0  0  0  0  0  0  0  0
   -1.7321    0.0000    0.0000 Fe   0  0  0  0  0  0  0  0  0  0  0  0
   -2.5981    0.5000    0.0000 C    0  0  0  0  0  0  0  0  0  0  0  0
   -2.5981    1.5000    0.0000 C    0  0  0  0  0  0  0  0  0  0  0  0
   -3.4641    2.0000    0.0000 C    0  0  0  0  0  0  0  0  0  0  0  0
   -4.3301    1.5000    0.0000 C    0  0  0  0  0  0  0  0  0  0  0  0
   -4.3301    0.5000    0.0000 C    0  0  0  0  0  0  0  0  0  0  0  0
   -3.4641    0.0000    0.0000 C    0  0  0  0  0  0  0  0  0  0  0  0
   -3.4641   -1.0000    0.0000 P    0  0  0  0  0  0  0  0  0  0  0  0
   -2.4641   -1.0000    0.0000 O    0  0  0  0  0  0  0  0  0  0  0  0
   -3.4641   -2.0000    0.0000 C    0  0  0  0  0  0  0  0  0  0  0  0
   -4.3301   -2.5000    0.0000 C    0  0  0  0  0  0  0  0  0  0  0  0
   -4.3301   -3.5000    0.0000 C    0  0  0  0  0  0  0  0  0  0  0  0
   -3.4641   -4.0000    0.0000 C    0  0  0  0  0  0  0  0  0  0  0  0
   -2.5981   -3.5000    0.0000 C    0  0  0  0  0  0  0  0  0  0  0  0
   -2.5981   -2.5000    0.0000 C    0  0  0  0  0  0  0  0  0  0  0  0
   -4.4641   -1.0000    0.0000 C    0  0  0  0  0  0  0  0  0  0  0  0
   -4.9641   -0.1340    0.0000 C    0  0  0  0  0  0  0  0  0  0  0  0
   -5.9641   -0.1340    0.0000 C    0  0  0  0  0  0  0  0  0  0  0  0
   -6.4641   -1.0000    0.0000 C    0  0  0  0  0  0  0  0  0  0  0  0
   -5.9641   -1.8660    0.0000 C    0  0  0  0  0  0  0  0  0  0  0  0
   -4.9641   -1.8660    0.0000 C    0  0  0  0  0  0  0  0  0  0  0  0
  1  2  2  0  0  0  0
  2  3  1  0  0  0  0
  2  9  1  0  0  0  0
  2 15  1  0  0  0  0
  3  8  2  0  0  0  0
  3  4  1  0  0  0  0
  4  5  2  0  0  0  0
  5  6  1  0  0  0  0
  6  7  2  0  0  0  0
  7  8  1  0  0  0  0
  9 14  2  0  0  0  0
  9 10  1  0  0  0  0
 10 11  2  0  0  0  0
 11 12  1  0  0  0  0
 12 13  2  0  0  0  0
 13 14  1  0  0  0  0
 15 20  2  0  0  0  0
 15 16  1  0  0  0  0
 16 17  2  0  0  0  0
 17 18  1  0  0  0  0
 18 19  2  0  0  0  0
 19 20  1  0  0  0  0
 20 21  1  0  0  0  0
 21 22  1  0  0  0  0
 22 27  2  0  0  0  0
 22 23  1  0  0  0  0
 23 24  2  0  0  0  0
 24 25  1  0  0  0  0
 25 26  2  0  0  0  0
 26 27  1  0  0  0  0
 27 28  1  0  0  0  0
 28 29  2  0  0  0  0
 28 30  1  0  0  0  0
 28 36  1  0  0  0  0
 30 35  2  0  0  0  0
 30 31  1  0  0  0  0
 31 32  2  0  0  0  0
 32 33  1  0  0  0  0
 33 34  2  0  0  0  0
 34 35  1  0  0  0  0
 36 41  2  0  0  0  0
 36 37  1  0  0  0  0
 37 38  2  0  0  0  0
 38 39  1  0  0  0  0
 39 40  2  0  0  0  0
 40 41  1  0  0  0  0
M  END
> <NMREDATA_VERSION>
1.1

> <NMREDATA_LEVEL>
0

> <NMREDATA_SOLVENT>
CD2Cl2

> <NMREDATA_FORMULA>
C36H28FeO2P2

> <NMREDATA_SMILES>
O=P(c1ccccc1[Fe]c1ccccc1P(=O)(c1ccccc1)c1ccccc1)(c1ccccc1)c1ccccc1

> <NMREDATA_ASSIGNMENT>
P2, 26.45, 2
P28, 26.45, 28

> <NMREDATA_1D_31P>
Larmor=162
26.45, L=P2
26.45, L=P28

$$$$
