
 OpenBabel06112616452D

 41 47  0  0  1  0  0  0  0  0999 V2000
    1.2326   -0.9458    0.0000 O   0  0  0  0  0  0  0  0  0  0  0  0
    0.9792    0.0000    0.0000 P   0  0  1  0  0  0  0  0  0  0  0  0
    1.9250   -0.2534    0.0000 C   0  0  0  0  0  0  0  0  0  0  0  0
    2.6173    0.4389    0.0000 C   0  0  0  0  0  0  0  0  0  0  0  0
    3.5631    0.1855    0.0000 C   0  0  0  0  0  0  0  0  0  0  0  0
    3.8166   -0.7603    0.0000 C   0  0  0  0  0  0  0  0  0  0  0  0
    3.1242   -1.4527    0.0000 C   0  0  0  0  0  0  0  0  0  0  0  0
    2.1784   -1.1992    0.0000 C   0  0  0  0  0  0  0  0  0  0  0  0
    0.0000    0.0000    0.0000 N   0  0  0  0  0  0  0  0  0  0  0  0
   -0.6924   -0.6924    0.0000 C   0  0  0  0  0  0  0  0  0  0  0  0
   -0.4389   -1.6382    0.0000 C   0  0  0  0  0  0  0  0  0  0  0  0
   -1.1313   -2.3306    0.0000 C   0  0  0  0  0  0  0  0  0  0  0  0
   -2.0771   -2.0771    0.0000 C   0  0  0  0  0  0  0  0  0  0  0  0
   -2.3306   -1.1313    0.0000 C   0  0  0  0  0  0  0  0  0  0  0  0
   -3.2764   -0.8779    0.0000 C   0  0  0  0  0  0  0  0  0  0  0  0
   -3.5298    0.0679    0.0000 C   0  0  0  0  0  0  0  0  0  0  0  0
   -2.8374    0.7603    0.0000 C   0  0  0  0  0  0  0  0  0  0  0  0
   -1.8916    0.5069    0.0000 C   0  0  0  0  0  0  0  0  0  0  0  0
   -1.6382   -0.4389    0.0000 C   0  0  0  0  0  0  0  0  0  0  0  0
    0.0000    0.9792    0.0000 C   0  0  2  0  0  0  0  0  0  0  0  0
   -0.6924    1.6715    0.0000 C   0  0  0  0  0  0  0  0  0  0  0  0
   -1.6382    1.4181    0.0000 C   0  0  0  0  0  0  0  0  0  0  0  0
   -2.3306    2.1105    0.0000 C   0  0  0  0  0  0  0  0  0  0  0  0
   -3.2764    1.8571    0.0000 C   0  0  0  0  0  0  0  0  0  0  0  0
   -3.9687    2.5494    0.0000 C   0  0  0  0  0  0  0  0  0  0  0  0
   -3.7153    3.4952    0.0000 C   0  0  0  0  0  0  0  0  0  0  0  0
   -2.7695    3.7487    0.0000 C   0  0  0  0  0  0  0  0  0  0  0  0
   -2.0771    3.0563    0.0000 C   0  0  0  0  0  0  0  0  0  0  0  0
    0.9792    0.9792    0.0000 C   0  0  0  0  0  0  0  0  0  0  0  0
    2.8708    1.4860    0.0000 C   0  0  0  0  0  0  0  0  0  0  0  0
    3.1242    2.4318    0.0000 C   0  0  0  0  0  0  0  0  0  0  0  0
    4.0700    2.6852    0.0000 C   0  0  0  0  0  0  0  0  0  0  0  0
    4.7624    1.9929    0.0000 C   0  0  0  0  0  0  0  0  0  0  0  0
    4.5089    1.0471    0.0000 C   0  0  0  0  0  0  0  0  0  0  0  0
    3.5631    0.7936    0.0000 C   0  0  0  0  0  0  0  0  0  0  0  0
    1.2326    1.9250    0.0000 C   0  0  0  0  0  0  0  0  0  0  0  0
    0.5402    2.6173    0.0000 C   0  0  0  0  0  0  0  0  0  0  0  0
    0.7936    3.5631    0.0000 C   0  0  0  0  0  0  0  0  0  0  0  0
    1.7394    3.8166    0.0000 C   0  0  0  0  0  0  0  0  0  0  0  0
    2.4318    3.1242    0.0000 C   0  0  0  0  0  0  0  0  0  0  0  0
    2.1784    2.1784    0.0000 C   0  0  0  0  0  0  0  0  0  0  0  0
  2  1  2  1  0  0  0
  2 29  1  0  0  0  0
  2  3  1  0  0  0  0
  2  9  1  0  0  0  0
  3  8  2  0  0  0  0
  3  4  1  0  0  0  0
  4  5  2  0  0  0  0
  5  6  1  0  0  0  0
  6  7  2  0  0  0  0
  7  8  1  0  0  0  0
  9 10  1  0  0  0  0
  9 20  1  0  0  0  0
 10 19  2  0  0  0  0
 10 11  1  0  0  0  0
 11 12  2  0  0  0  0
 12 13  1  0  0  0  0
 13 14  2  0  0  0  0
 14 19  1  0  0  0  0
 14 15  1  0  0  0  0
 15 16  2  0  0  0  0
 16 17  1  0  0  0  0
 17 18  2  0  0  0  0
 18 19  1  0  0  0  0
 20 21  1  6  0  0  0
 20 29  1  0  0  0  0
 21 22  2  0  0  0  0
 22 23  1  0  0  0  0
 23 28  2  0  0  0  0
 23 24  1  0  0  0  0
 24 25  2  0  0  0  0
 25 26  1  0  0  0  0
 26 27  2  0  0  0  0
 27 28  1  0  0  0  0
 29 30  1  0  0  0  0
 29 36  1  0  0  0  0
 30 35  2  0  0  0  0
 30 31  1  0  0  0  0
 31 32  2  0  0  0  0
 32 33  1  0  0  0  0
 33 34  2  0  0  0  0
 34 35  1  0  0  0  0
 36 41  2  0  0  0  0
 36 37  1  0  0  0  0
 37 38  2  0  0  0  0
 38 39  1  0  0  0  0
 39 40  2  0  0  0  0
 40 41  1  0  0  0  0
M  END
> <NMREDATA_VERSION>
1.1

> <NMREDATA_LEVEL>
0

> <NMREDATA_SOLVENT>
CDCl3

> <NMREDATA_FORMULA>
C38H30NOP

> <NMREDATA_SMILES>
O=[P@@]1(c2ccccc2)N(c2cccc3c2cccc3)[C@@H](C1(c1ccccc1)c1ccccc1)/C=C/c1ccccc1

> <NMREDATA_ASSIGNMENT>
P2, 41.32, 2

> <NMREDATA_1D_31P>
Larmor=162
41.32, L=P2

$$$$
