
 OpenBabel06112616442D

 48 50  0  0  0  0  0  0  0  0999 V2000
    0.8660   -1.5000    0.0000 C   0  0  0  0  0  0  0  0  0  0  0  0
    0.0000   -1.0000    0.0000 C   0  0  0  0  0  0  0  0  0  0  0  0
   -0.8660   -1.5000    0.0000 C   0  0  0  0  0  0  0  0  0  0  0  0
   -1.7321   -1.0000    0.0000 C   0  0  0  0  0  0  0  0  0  0  0  0
   -2.5981   -1.5000    0.0000 C   0  0  0  0  0  0  0  0  0  0  0  0
   -3.0981   -2.3660    0.0000 F   0  0  0  0  0  0  0  0  0  0  0  0
   -2.0981   -2.3660    0.0000 F   0  0  0  0  0  0  0  0  0  0  0  0
   -3.4641   -1.0000    0.0000 F   0  0  0  0  0  0  0  0  0  0  0  0
   -1.7321    0.0000    0.0000 C   0  0  0  0  0  0  0  0  0  0  0  0
   -0.8660    0.5000    0.0000 C   0  0  0  0  0  0  0  0  0  0  0  0
   -0.8660    1.5000    0.0000 P   0  0  0  0  0  0  0  0  0  0  0  0
    0.0000    2.0000    0.0000 C   0  0  0  0  0  0  0  0  0  0  0  0
    0.0000    3.0000    0.0000 C   0  0  0  0  0  0  0  0  0  0  0  0
    0.8660    3.5000    0.0000 C   0  0  0  0  0  0  0  0  0  0  0  0
    0.8660    4.5000    0.0000 C   0  0  0  0  0  0  0  0  0  0  0  0
    0.3660    5.3660    0.0000 F   0  0  0  0  0  0  0  0  0  0  0  0
   -0.1340    4.5000    0.0000 F   0  0  0  0  0  0  0  0  0  0  0  0
    1.7321    5.0000    0.0000 F   0  0  0  0  0  0  0  0  0  0  0  0
    1.7321    3.0000    0.0000 C   0  0  0  0  0  0  0  0  0  0  0  0
    1.7321    2.0000    0.0000 C   0  0  0  0  0  0  0  0  0  0  0  0
    2.5981    1.5000    0.0000 C   0  0  0  0  0  0  0  0  0  0  0  0
    3.5981    1.5000    0.0000 F   0  0  0  0  0  0  0  0  0  0  0  0
    3.0981    2.3660    0.0000 F   0  0  0  0  0  0  0  0  0  0  0  0
    2.5981    0.5000    0.0000 F   0  0  0  0  0  0  0  0  0  0  0  0
    0.8660    1.5000    0.0000 C   0  0  0  0  0  0  0  0  0  0  0  0
   -1.7321    2.0000    0.0000 C   0  0  0  0  0  0  0  0  0  0  0  0
   -2.5981    1.5000    0.0000 C   0  0  0  0  0  0  0  0  0  0  0  0
   -3.4641    2.0000    0.0000 C   0  0  0  0  0  0  0  0  0  0  0  0
   -3.4641    3.0000    0.0000 C   0  0  0  0  0  0  0  0  0  0  0  0
   -2.5981    3.5000    0.0000 C   0  0  0  0  0  0  0  0  0  0  0  0
   -2.5981    4.5000    0.0000 C   0  0  0  0  0  0  0  0  0  0  0  0
   -1.7321    5.0000    0.0000 O   0  0  0  0  0  0  0  0  0  0  0  0
   -3.4641    5.0000    0.0000 N   0  0  0  0  0  0  0  0  0  0  0  0
   -3.4641    6.0000    0.0000 C   0  0  0  0  0  0  0  0  0  0  0  0
   -2.5981    6.5000    0.0000 N   0  0  0  0  0  0  0  0  0  0  0  0
   -4.3301    6.5000    0.0000 N   0  0  0  0  0  0  0  0  0  0  0  0
   -4.3301    7.5000    0.0000 C   0  0  0  0  0  0  0  0  0  0  0  0
   -5.1962    8.0000    0.0000 O   0  0  0  0  0  0  0  0  0  0  0  0
   -6.0622    7.5000    0.0000 C   0  0  0  0  0  0  0  0  0  0  0  0
   -7.0622    7.5000    0.0000 C   0  0  0  0  0  0  0  0  0  0  0  0
   -6.5622    8.3660    0.0000 C   0  0  0  0  0  0  0  0  0  0  0  0
   -6.0622    6.5000    0.0000 C   0  0  0  0  0  0  0  0  0  0  0  0
   -3.4641    8.0000    0.0000 O   0  0  0  0  0  0  0  0  0  0  0  0
   -1.7321    3.0000    0.0000 N   0  0  0  0  0  0  0  0  0  0  0  0
    0.0000    0.0000    0.0000 C   0  0  0  0  0  0  0  0  0  0  0  0
    1.8660   -1.5000    0.0000 F   0  0  0  0  0  0  0  0  0  0  0  0
    1.3660   -0.6340    0.0000 F   0  0  0  0  0  0  0  0  0  0  0  0
    0.8660   -2.5000    0.0000 F   0  0  0  0  0  0  0  0  0  0  0  0
  1  2  1  0  0  0  0
  1 46  1  0  0  0  0
  1 47  1  0  0  0  0
  1 48  1  0  0  0  0
  2 45  2  0  0  0  0
  2  3  1  0  0  0  0
  3  4  2  0  0  0  0
  4  5  1  0  0  0  0
  4  9  1  0  0  0  0
  5  6  1  0  0  0  0
  5  7  1  0  0  0  0
  5  8  1  0  0  0  0
  9 10  2  0  0  0  0
 10 11  1  0  0  0  0
 10 45  1  0  0  0  0
 11 12  1  0  0  0  0
 11 26  1  0  0  0  0
 12 25  2  0  0  0  0
 12 13  1  0  0  0  0
 13 14  2  0  0  0  0
 14 15  1  0  0  0  0
 14 19  1  0  0  0  0
 15 16  1  0  0  0  0
 15 17  1  0  0  0  0
 15 18  1  0  0  0  0
 19 20  2  0  0  0  0
 20 21  1  0  0  0  0
 20 25  1  0  0  0  0
 21 22  1  0  0  0  0
 21 23  1  0  0  0  0
 21 24  1  0  0  0  0
 26 44  2  0  0  0  0
 26 27  1  0  0  0  0
 27 28  2  0  0  0  0
 28 29  1  0  0  0  0
 29 30  2  0  0  0  0
 30 31  1  0  0  0  0
 30 44  1  0  0  0  0
 31 32  2  0  0  0  0
 31 33  1  0  0  0  0
 33 34  1  0  0  0  0
 34 35  1  0  0  0  0
 34 36  2  0  0  0  0
 36 37  1  0  0  0  0
 37 38  1  0  0  0  0
 37 43  2  0  0  0  0
 38 39  1  0  0  0  0
 39 40  1  0  0  0  0
 39 41  1  0  0  0  0
 39 42  1  0  0  0  0
M  END
> <NMREDATA_VERSION>
1.1

> <NMREDATA_LEVEL>
0

> <NMREDATA_SOLVENT>
CD3COCD3

> <NMREDATA_FORMULA>
C28H21F12N4O3P

> <NMREDATA_SMILES>
N/C(=N\C(=O)OC(C)(C)C)/NC(=O)c1cccc(n1)P(c1cc(cc(c1)C(F)(F)F)C(F)(F)F)c1cc(cc(c1)C(F)(F)F)C(F)(F)F

> <NMREDATA_ASSIGNMENT>
P11, -2.70, 11

> <NMREDATA_1D_31P>
Larmor=121
-2.70, L=P11

$$$$
