
 OpenBabel06112616442D

 26 29  0  0  0  0  0  0  0  0999 V2000
    1.8660    1.5000    0.0000 C   0  0  0  0  0  0  0  0  0  0  0  0
    1.0000    1.0000    0.0000 O   0  0  0  0  0  0  0  0  0  0  0  0
    1.0000    0.0000    0.0000 P   0  0  0  0  0  0  0  0  0  0  0  0
    2.0000    0.0000    0.0000 O   0  0  0  0  0  0  0  0  0  0  0  0
    1.0000   -1.0000    0.0000 O   0  0  0  0  0  0  0  0  0  0  0  0
    0.1340   -1.5000    0.0000 C   0  0  0  0  0  0  0  0  0  0  0  0
    0.0000    0.0000    0.0000 C   0  0  0  0  0  0  0  0  0  0  0  0
   -0.5878    0.8090    0.0000 N   0  3  0  0  0  0  0  0  0  0  0  0
   -1.5388    0.5000    0.0000 C   0  0  0  0  0  0  0  0  0  0  0  0
   -2.2820    1.1691    0.0000 C   0  0  0  0  0  0  0  0  0  0  0  0
   -3.2330    0.8601    0.0000 C   0  0  0  0  0  0  0  0  0  0  0  0
   -3.9762    1.5292    0.0000 C   0  0  0  0  0  0  0  0  0  0  0  0
   -4.9272    1.2202    0.0000 C   0  0  0  0  0  0  0  0  0  0  0  0
   -5.1352    0.2421    0.0000 C   0  0  0  0  0  0  0  0  0  0  0  0
   -4.3920   -0.4271    0.0000 C   0  0  0  0  0  0  0  0  0  0  0  0
   -3.4410   -0.1180    0.0000 C   0  0  0  0  0  0  0  0  0  0  0  0
   -2.0741    2.1473    0.0000 C   0  0  0  0  0  0  0  0  0  0  0  0
   -2.6619    2.9563    0.0000 C   0  0  0  0  0  0  0  0  0  0  0  0
   -2.0741    3.7653    0.0000 C   0  0  0  0  0  0  0  0  0  0  0  0
   -1.1230    3.4563    0.0000 C   0  0  0  0  0  0  0  0  0  0  0  0
   -1.1230    2.4563    0.0000 N   0  0  0  0  0  0  0  0  0  0  0  0
   -0.3799    1.7872    0.0000 B   0  5  0  0  0  0  0  0  0  0  0  0
    0.2893    2.5303    0.0000 F   0  0  0  0  0  0  0  0  0  0  0  0
    0.5983    1.5793    0.0000 F   0  0  0  0  0  0  0  0  0  0  0  0
   -1.5388   -0.5000    0.0000 C   0  0  0  0  0  0  0  0  0  0  0  0
   -0.5878   -0.8090    0.0000 C   0  0  0  0  0  0  0  0  0  0  0  0
  1  2  1  0  0  0  0
  2  3  1  0  0  0  0
  3  4  2  0  0  0  0
  3  5  1  0  0  0  0
  3  7  1  0  0  0  0
  5  6  1  0  0  0  0
  7 26  1  0  0  0  0
  7  8  2  0  0  0  0
  8 22  1  0  0  0  0
  8  9  1  0  0  0  0
  9 10  2  0  0  0  0
  9 25  1  0  0  0  0
 10 11  1  0  0  0  0
 10 17  1  0  0  0  0
 11 16  2  0  0  0  0
 11 12  1  0  0  0  0
 12 13  2  0  0  0  0
 13 14  1  0  0  0  0
 14 15  2  0  0  0  0
 15 16  1  0  0  0  0
 17 21  1  0  0  0  0
 17 18  2  0  0  0  0
 18 19  1  0  0  0  0
 19 20  2  0  0  0  0
 20 21  1  0  0  0  0
 21 22  1  0  0  0  0
 22 23  1  0  0  0  0
 22 24  1  0  0  0  0
 25 26  2  0  0  0  0
M  END
> <NMREDATA_VERSION>
1.1

> <NMREDATA_LEVEL>
0

> <NMREDATA_SOLVENT>
CDCl3

> <NMREDATA_FORMULA>
C17H16BF2N2O3P

> <NMREDATA_SMILES>
COP(=O)(C1=[N+]2C(=C(c3ccccc3)c3n([B-]2(F)F)ccc3)C=C1)OC

> <NMREDATA_ASSIGNMENT>
P3, 9.79, 3

> <NMREDATA_1D_31P>
Larmor=162
9.79, L=P3

$$$$
