
 OpenBabel06112616472D

 28 31  0  0  0  0  0  0  0  0999 V2000
   -3.8750   -0.9688    0.0000 C   0  0  0  0  0  0  0  0  0  0  0  0
   -2.9063   -0.9688    0.0000 C   0  0  0  0  0  0  0  0  0  0  0  0
   -2.4219   -0.1298    0.0000 C   0  0  0  0  0  0  0  0  0  0  0  0
   -1.4531   -0.1298    0.0000 C   0  0  0  0  0  0  0  0  0  0  0  0
   -0.9688   -0.9688    0.0000 C   0  0  0  0  0  0  0  0  0  0  0  0
    0.0000   -0.9688    0.0000 P   0  0  0  0  0  0  0  0  0  0  0  0
    0.0000   -1.9375    0.0000 O   0  0  0  0  0  0  0  0  0  0  0  0
    1.9375   -0.9688    0.0000 C   0  0  0  0  0  0  0  0  0  0  0  0
    2.4219   -0.1298    0.0000 C   0  0  0  0  0  0  0  0  0  0  0  0
    3.3906   -0.1298    0.0000 C   0  0  0  0  0  0  0  0  0  0  0  0
    3.8750   -0.9688    0.0000 C   0  0  0  0  0  0  0  0  0  0  0  0
    4.8438   -0.9688    0.0000 C   0  0  0  0  0  0  0  0  0  0  0  0
    3.3906   -1.8077    0.0000 C   0  0  0  0  0  0  0  0  0  0  0  0
    2.4219   -1.8077    0.0000 C   0  0  0  0  0  0  0  0  0  0  0  0
    0.0000    0.0000    0.0000 C   0  0  0  0  0  0  0  0  0  0  0  0
   -0.8390    0.4844    0.0000 C   0  0  0  0  0  0  0  0  0  0  0  0
   -0.8390    1.4531    0.0000 C   0  0  0  0  0  0  0  0  0  0  0  0
   -1.6779    1.9375    0.0000 O   0  0  0  0  0  0  0  0  0  0  0  0
    0.0000    1.9375    0.0000 N   0  0  0  0  0  0  0  0  0  0  0  0
    0.0000    2.9063    0.0000 C   0  0  0  0  0  0  0  0  0  0  0  0
    0.8390    1.4531    0.0000 C   0  0  0  0  0  0  0  0  0  0  0  0
    1.6779    1.9375    0.0000 C   0  0  0  0  0  0  0  0  0  0  0  0
    2.5169    1.4531    0.0000 C   0  0  0  0  0  0  0  0  0  0  0  0
    2.5169    0.4844    0.0000 C   0  0  0  0  0  0  0  0  0  0  0  0
    1.6779    0.0000    0.0000 C   0  0  0  0  0  0  0  0  0  0  0  0
    0.8390    0.4844    0.0000 C   0  0  0  0  0  0  0  0  0  0  0  0
   -1.4531   -1.8077    0.0000 C   0  0  0  0  0  0  0  0  0  0  0  0
   -2.4219   -1.8077    0.0000 C   0  0  0  0  0  0  0  0  0  0  0  0
  1  2  1  0  0  0  0
  2 28  2  0  0  0  0
  2  3  1  0  0  0  0
  3  4  2  0  0  0  0
  4  5  1  0  0  0  0
  5  6  1  0  0  0  0
  5 27  2  0  0  0  0
  6  7  2  0  0  0  0
  6  8  1  0  0  0  0
  6 15  1  0  0  0  0
  8 14  2  0  0  0  0
  8  9  1  0  0  0  0
  9 10  2  0  0  0  0
 10 11  1  0  0  0  0
 11 12  1  0  0  0  0
 11 13  2  0  0  0  0
 13 14  1  0  0  0  0
 15 26  1  0  0  0  0
 15 16  2  0  0  0  0
 16 17  1  0  0  0  0
 17 18  2  0  0  0  0
 17 19  1  0  0  0  0
 19 20  1  0  0  0  0
 19 21  1  0  0  0  0
 21 26  2  0  0  0  0
 21 22  1  0  0  0  0
 22 23  2  0  0  0  0
 23 24  1  0  0  0  0
 24 25  2  0  0  0  0
 25 26  1  0  0  0  0
 27 28  1  0  0  0  0
M  END
> <NMREDATA_VERSION>
1.1

> <NMREDATA_LEVEL>
0

> <NMREDATA_SOLVENT>
CDCl3

> <NMREDATA_FORMULA>
C24H22NO2P

> <NMREDATA_SMILES>
Cc1ccc(cc1)P(=O)(c1cc(=O)n(c2c1cccc2)C)c1ccc(cc1)C

> <NMREDATA_ASSIGNMENT>
P6, 31.30, 6

> <NMREDATA_1D_31P>
Larmor=162
31.30, L=P6

$$$$
