
 OpenBabel06112616432D

 54 58  0  0  0  0  0  0  0  0999 V2000
    0.5000   -3.5981    0.0000 C   0  0  0  0  0  0  0  0  0  0  0  0
   -0.5000   -3.5981    0.0000 C   0  0  0  0  0  0  0  0  0  0  0  0
   -1.0000   -2.7321    0.0000 C   0  0  0  0  0  0  0  0  0  0  0  0
   -1.5000   -1.8660    0.0000 C   0  0  0  0  0  0  0  0  0  0  0  0
   -1.0000   -1.0000    0.0000 S   0  0  0  0  0  0  0  0  0  0  0  0
    0.0000   -1.0000    0.0000 P   0  0  0  0  0  0  0  0  0  0  0  0
    0.0000   -2.0000    0.0000 O   0  0  0  0  0  0  0  0  0  0  0  0
    1.0000   -1.0000    0.0000 O   0  0  0  0  0  0  0  0  0  0  0  0
    1.5000   -1.8660    0.0000 C   0  0  0  0  0  0  0  0  0  0  0  0
    2.5000   -1.8660    0.0000 C   0  0  0  0  0  0  0  0  0  0  0  0
    0.0000    0.0000    0.0000 O   0  0  0  0  0  0  0  0  0  0  0  0
    0.8660    0.5000    0.0000 C   0  0  0  0  0  0  0  0  0  0  0  0
    1.7321    0.0000    0.0000 C   0  0  0  0  0  0  0  0  0  0  0  0
   -2.5000   -1.8660    0.0000 C   0  0  0  0  0  0  0  0  0  0  0  0
   -3.0000   -2.7321    0.0000 C   0  0  0  0  0  0  0  0  0  0  0  0
   -4.0000   -2.7321    0.0000 C   0  0  0  0  0  0  0  0  0  0  0  0
   -4.5000   -1.8660    0.0000 C   0  0  0  0  0  0  0  0  0  0  0  0
   -5.5000   -1.8660    0.0000 C   0  0  0  0  0  0  0  0  0  0  0  0
   -6.0000   -1.0000    0.0000 C   0  0  0  0  0  0  0  0  0  0  0  0
   -6.5000   -0.1340    0.0000 C   0  0  0  0  0  0  0  0  0  0  0  0
   -6.0000    0.7321    0.0000 C   0  0  0  0  0  0  0  0  0  0  0  0
   -6.5000    1.5981    0.0000 C   0  0  0  0  0  0  0  0  0  0  0  0
   -6.0000    2.4641    0.0000 C   0  0  0  0  0  0  0  0  0  0  0  0
   -5.0000    2.4641    0.0000 C   0  0  0  0  0  0  0  0  0  0  0  0
   -4.5000    1.5981    0.0000 C   0  0  0  0  0  0  0  0  0  0  0  0
   -5.0000    0.7321    0.0000 C   0  0  0  0  0  0  0  0  0  0  0  0
   -7.5000   -0.1340    0.0000 C   0  0  0  0  0  0  0  0  0  0  0  0
   -8.0000   -1.0000    0.0000 C   0  0  0  0  0  0  0  0  0  0  0  0
   -9.0000   -1.0000    0.0000 C   0  0  0  0  0  0  0  0  0  0  0  0
   -9.5000   -0.1340    0.0000 C   0  0  0  0  0  0  0  0  0  0  0  0
   -9.0000    0.7321    0.0000 C   0  0  0  0  0  0  0  0  0  0  0  0
   -8.0000    0.7321    0.0000 C   0  0  0  0  0  0  0  0  0  0  0  0
   -6.0000   -2.7321    0.0000 S   0  0  0  0  0  0  0  0  0  0  0  0
   -7.0000   -2.7321    0.0000 P   0  0  0  0  0  0  0  0  0  0  0  0
   -7.0000   -1.7321    0.0000 O   0  0  0  0  0  0  0  0  0  0  0  0
   -8.0000   -2.7321    0.0000 O   0  0  0  0  0  0  0  0  0  0  0  0
   -8.5000   -1.8660    0.0000 C   0  0  0  0  0  0  0  0  0  0  0  0
   -9.5000   -1.8660    0.0000 C   0  0  0  0  0  0  0  0  0  0  0  0
   -7.0000   -3.7321    0.0000 O   0  0  0  0  0  0  0  0  0  0  0  0
   -7.8660   -4.2321    0.0000 C   0  0  0  0  0  0  0  0  0  0  0  0
   -8.7321   -3.7321    0.0000 C   0  0  0  0  0  0  0  0  0  0  0  0
   -4.0000   -1.0000    0.0000 C   0  0  0  0  0  0  0  0  0  0  0  0
   -3.0000   -1.0000    0.0000 C   0  0  0  0  0  0  0  0  0  0  0  0
   -1.0000   -4.4641    0.0000 C   0  0  0  0  0  0  0  0  0  0  0  0
   -0.5000   -5.3301    0.0000 C   0  0  0  0  0  0  0  0  0  0  0  0
   -1.0000   -6.1962    0.0000 C   0  0  0  0  0  0  0  0  0  0  0  0
   -2.0000   -6.1962    0.0000 C   0  0  0  0  0  0  0  0  0  0  0  0
   -2.5000   -5.3301    0.0000 C   0  0  0  0  0  0  0  0  0  0  0  0
   -2.0000   -4.4641    0.0000 C   0  0  0  0  0  0  0  0  0  0  0  0
    1.0000   -2.7321    0.0000 C   0  0  0  0  0  0  0  0  0  0  0  0
    2.0000   -2.7321    0.0000 C   0  0  0  0  0  0  0  0  0  0  0  0
    2.5000   -3.5981    0.0000 C   0  0  0  0  0  0  0  0  0  0  0  0
    2.0000   -4.4641    0.0000 C   0  0  0  0  0  0  0  0  0  0  0  0
    1.0000   -4.4641    0.0000 C   0  0  0  0  0  0  0  0  0  0  0  0
  1 54  2  0  0  0  0
  1  2  1  0  0  0  0
  1 50  1  0  0  0  0
  2  3  2  0  0  0  0
  2 44  1  0  0  0  0
  3  4  2  0  0  0  0
  4  5  1  0  0  0  0
  4 14  1  0  0  0  0
  5  6  1  0  0  0  0
  6  7  2  0  0  0  0
  6  8  1  0  0  0  0
  6 11  1  0  0  0  0
  8  9  1  0  0  0  0
  9 10  1  0  0  0  0
 11 12  1  0  0  0  0
 12 13  1  0  0  0  0
 14 43  2  0  0  0  0
 14 15  1  0  0  0  0
 15 16  2  0  0  0  0
 16 17  1  0  0  0  0
 17 18  1  0  0  0  0
 17 42  2  0  0  0  0
 18 19  2  0  0  0  0
 18 33  1  0  0  0  0
 19 20  2  0  0  0  0
 20 21  1  0  0  0  0
 20 27  1  0  0  0  0
 21 26  2  0  0  0  0
 21 22  1  0  0  0  0
 22 23  2  0  0  0  0
 23 24  1  0  0  0  0
 24 25  2  0  0  0  0
 25 26  1  0  0  0  0
 27 32  2  0  0  0  0
 27 28  1  0  0  0  0
 28 29  2  0  0  0  0
 29 30  1  0  0  0  0
 30 31  2  0  0  0  0
 31 32  1  0  0  0  0
 33 34  1  0  0  0  0
 34 35  2  0  0  0  0
 34 36  1  0  0  0  0
 34 39  1  0  0  0  0
 36 37  1  0  0  0  0
 37 38  1  0  0  0  0
 39 40  1  0  0  0  0
 40 41  1  0  0  0  0
 42 43  1  0  0  0  0
 44 49  2  0  0  0  0
 44 45  1  0  0  0  0
 45 46  2  0  0  0  0
 46 47  1  0  0  0  0
 47 48  2  0  0  0  0
 48 49  1  0  0  0  0
 50 51  2  0  0  0  0
 51 52  1  0  0  0  0
 52 53  2  0  0  0  0
 53 54  1  0  0  0  0
M  END
> <NMREDATA_VERSION>
1.1

> <NMREDATA_LEVEL>
0

> <NMREDATA_SOLVENT>
CDCl3

> <NMREDATA_FORMULA>
C44H44O6P2S2

> <NMREDATA_SMILES>
CCOP(=O)(SC(=C=C(c1ccccc1)c1ccccc1)c1ccc(cc1)C(=C=C(c1ccccc1)c1ccccc1)SP(=O)(OCC)OCC)OCC

> <NMREDATA_ASSIGNMENT>
P6, 20.33, 6
P34, 20.33, 34

> <NMREDATA_1D_31P>
Larmor=162
20.33, L=P6
20.33, L=P34

$$$$
