
 OpenBabel06112616422D

 51 52  0  0  0  0  0  0  0  0999 V2000
  -17.5000   10.2583    0.0000 C   0  0  0  0  0  0  0  0  0  0  0  0
  -18.0000    9.3923    0.0000 C   0  0  0  0  0  0  0  0  0  0  0  0
  -18.0000    8.3923    0.0000 C   0  0  0  0  0  0  0  0  0  0  0  0
  -17.1340    8.8923    0.0000 C   0  0  0  0  0  0  0  0  0  0  0  0
  -19.0000    9.3923    0.0000 O   0  0  0  0  0  0  0  0  0  0  0  0
  -19.5000    8.5263    0.0000 C   0  0  0  0  0  0  0  0  0  0  0  0
  -20.5000    8.5263    0.0000 O   0  0  0  0  0  0  0  0  0  0  0  0
  -19.0000    7.6603    0.0000 N   0  0  0  0  0  0  0  0  0  0  0  0
  -18.0000    7.6603    0.0000 C   0  0  0  0  0  0  0  0  0  0  0  0
  -17.5000    6.7942    0.0000 C   0  0  0  0  0  0  0  0  0  0  0  0
  -16.5000    6.7942    0.0000 O   0  0  0  0  0  0  0  0  0  0  0  0
  -16.0000    5.9282    0.0000 C   0  0  0  0  0  0  0  0  0  0  0  0
  -15.0000    5.9282    0.0000 C   0  0  0  0  0  0  0  0  0  0  0  0
  -14.5000    5.0622    0.0000 O   0  0  0  0  0  0  0  0  0  0  0  0
  -13.5000    5.0622    0.0000 C   0  0  0  0  0  0  0  0  0  0  0  0
  -13.0000    4.1962    0.0000 C   0  0  0  0  0  0  0  0  0  0  0  0
  -12.0000    4.1962    0.0000 O   0  0  0  0  0  0  0  0  0  0  0  0
  -11.5000    3.3301    0.0000 C   0  0  0  0  0  0  0  0  0  0  0  0
  -10.5000    3.3301    0.0000 C   0  0  0  0  0  0  0  0  0  0  0  0
  -10.0000    2.4641    0.0000 O   0  0  0  0  0  0  0  0  0  0  0  0
  -10.0000    4.1962    0.0000 N   0  0  0  0  0  0  0  0  0  0  0  0
   -9.0000    4.1962    0.0000 C   0  0  0  0  0  0  0  0  0  0  0  0
   -8.5000    3.3301    0.0000 C   0  0  0  0  0  0  0  0  0  0  0  0
   -7.5000    3.3301    0.0000 O   0  0  0  0  0  0  0  0  0  0  0  0
   -7.0000    2.4641    0.0000 C   0  0  0  0  0  0  0  0  0  0  0  0
   -6.0000    2.4641    0.0000 C   0  0  0  0  0  0  0  0  0  0  0  0
   -5.5000    1.5981    0.0000 O   0  0  0  0  0  0  0  0  0  0  0  0
   -4.5000    1.5981    0.0000 C   0  0  0  0  0  0  0  0  0  0  0  0
   -4.0000    0.7321    0.0000 C   0  0  0  0  0  0  0  0  0  0  0  0
   -3.0000    0.7321    0.0000 O   0  0  0  0  0  0  0  0  0  0  0  0
   -2.5000   -0.1340    0.0000 C   0  0  0  0  0  0  0  0  0  0  0  0
   -1.5000   -0.1340    0.0000 C   0  0  0  0  0  0  0  0  0  0  0  0
   -1.0000   -1.0000    0.0000 O   0  0  0  0  0  0  0  0  0  0  0  0
    0.0000   -1.0000    0.0000 P   0  0  0  0  0  0  0  0  0  0  0  0
    0.0000   -2.0000    0.0000 O   0  0  0  0  0  0  0  0  0  0  0  0
    1.0000   -1.0000    0.0000 O   0  0  0  0  0  0  0  0  0  0  0  0
    1.5000   -1.8660    0.0000 C   0  0  0  0  0  0  0  0  0  0  0  0
    1.0000   -2.7321    0.0000 C   0  0  0  0  0  0  0  0  0  0  0  0
    0.0000   -2.7321    0.0000 C   0  0  0  0  0  0  0  0  0  0  0  0
   -0.5000   -3.5981    0.0000 C   0  0  0  0  0  0  0  0  0  0  0  0
    0.0000   -4.4641    0.0000 C   0  0  0  0  0  0  0  0  0  0  0  0
    1.0000   -4.4641    0.0000 C   0  0  0  0  0  0  0  0  0  0  0  0
    1.5000   -3.5981    0.0000 C   0  0  0  0  0  0  0  0  0  0  0  0
    0.0000    0.0000    0.0000 O   0  0  0  0  0  0  0  0  0  0  0  0
    0.8660    0.5000    0.0000 C   0  0  0  0  0  0  0  0  0  0  0  0
    1.7321    0.0000    0.0000 C   0  0  0  0  0  0  0  0  0  0  0  0
    2.5981    0.5000    0.0000 C   0  0  0  0  0  0  0  0  0  0  0  0
    3.4641    0.0000    0.0000 C   0  0  0  0  0  0  0  0  0  0  0  0
    3.4641   -1.0000    0.0000 C   0  0  0  0  0  0  0  0  0  0  0  0
    2.5981   -1.5000    0.0000 C   0  0  0  0  0  0  0  0  0  0  0  0
    1.7321   -1.0000    0.0000 C   0  0  0  0  0  0  0  0  0  0  0  0
  1  2  1  0  0  0  0
  2  3  1  0  0  0  0
  2  4  1  0  0  0  0
  2  5  1  0  0  0  0
  5  6  1  0  0  0  0
  6  7  2  0  0  0  0
  6  8  1  0  0  0  0
  8  9  1  0  0  0  0
  9 10  1  0  0  0  0
 10 11  1  0  0  0  0
 11 12  1  0  0  0  0
 12 13  1  0  0  0  0
 13 14  1  0  0  0  0
 14 15  1  0  0  0  0
 15 16  1  0  0  0  0
 16 17  1  0  0  0  0
 17 18  1  0  0  0  0
 18 19  1  0  0  0  0
 19 20  2  0  0  0  0
 19 21  1  0  0  0  0
 21 22  1  0  0  0  0
 22 23  1  0  0  0  0
 23 24  1  0  0  0  0
 24 25  1  0  0  0  0
 25 26  1  0  0  0  0
 26 27  1  0  0  0  0
 27 28  1  0  0  0  0
 28 29  1  0  0  0  0
 29 30  1  0  0  0  0
 30 31  1  0  0  0  0
 31 32  1  0  0  0  0
 32 33  1  0  0  0  0
 33 34  1  0  0  0  0
 34 35  2  0  0  0  0
 34 36  1  0  0  0  0
 34 44  1  0  0  0  0
 36 37  1  0  0  0  0
 37 38  1  0  0  0  0
 38 43  2  0  0  0  0
 38 39  1  0  0  0  0
 39 40  2  0  0  0  0
 40 41  1  0  0  0  0
 41 42  2  0  0  0  0
 42 43  1  0  0  0  0
 44 45  1  0  0  0  0
 45 46  1  0  0  0  0
 46 51  2  0  0  0  0
 46 47  1  0  0  0  0
 47 48  2  0  0  0  0
 48 49  1  0  0  0  0
 49 50  2  0  0  0  0
 50 51  1  0  0  0  0
M  END
> <NMREDATA_VERSION>
1.1

> <NMREDATA_LEVEL>
0

> <NMREDATA_SOLVENT>
CDCl3

> <NMREDATA_FORMULA>
C35H55N2O13P

> <NMREDATA_SMILES>
O=C(COCCOCCOCCNC(=O)OC(C)(C)C)NCCOCCOCCOCCOP(=O)(OCc1ccccc1)OCc1ccccc1

> <NMREDATA_ASSIGNMENT>
P34, 0.14, 34

> <NMREDATA_1D_31P>
Larmor=162
0.14, L=P34

$$$$
