
 OpenBabel06112616462D

 16 17  0  0  0  0  0  0  0  0999 V2000
    0.5877    2.9297    0.0000 C   0  0  0  0  0  0  0  0  0  0  0  0
    1.0417    2.0387    0.0000 C   0  0  0  0  0  0  0  0  0  0  0  0
    0.4971    1.2000    0.0000 O   0  0  0  0  0  0  0  0  0  0  0  0
    0.9511    0.3090    0.0000 P   0  0  3  0  0  0  0  0  0  0  0  0
    1.9146    0.5767    0.0000 O   0  0  0  0  0  0  0  0  0  0  0  0
    1.5388   -0.5000    0.0000 O   0  0  0  0  0  0  0  0  0  0  0  0
    0.9511   -1.3090    0.0000 C   0  0  0  0  0  0  0  0  0  0  0  0
    0.0000   -1.0000    0.0000 C   0  0  0  0  0  0  0  0  0  0  0  0
   -0.8660   -1.5000    0.0000 C   0  0  0  0  0  0  0  0  0  0  0  0
   -0.8660   -2.5000    0.0000 C   0  0  0  0  0  0  0  0  0  0  0  0
   -1.7321   -1.0000    0.0000 C   0  0  0  0  0  0  0  0  0  0  0  0
   -1.7321    0.0000    0.0000 C   0  0  0  0  0  0  0  0  0  0  0  0
   -2.5981    0.5000    0.0000 C   0  0  0  0  0  0  0  0  0  0  0  0
   -0.8660    0.5000    0.0000 C   0  0  0  0  0  0  0  0  0  0  0  0
   -0.8660    1.5000    0.0000 C   0  0  0  0  0  0  0  0  0  0  0  0
    0.0000    0.0000    0.0000 C   0  0  0  0  0  0  0  0  0  0  0  0
  1  2  1  0  0  0  0
  2  3  1  0  0  0  0
  3  4  1  0  0  0  0
  4 16  1  0  0  0  0
  4  5  2  0  0  0  0
  4  6  1  0  0  0  0
  6  7  1  0  0  0  0
  7  8  1  0  0  0  0
  8 16  2  0  0  0  0
  8  9  1  0  0  0  0
  9 10  1  0  0  0  0
  9 11  2  0  0  0  0
 11 12  1  0  0  0  0
 12 13  1  0  0  0  0
 12 14  2  0  0  0  0
 14 15  1  0  0  0  0
 14 16  1  0  0  0  0
M  END
> <NMREDATA_VERSION>
1.1

> <NMREDATA_LEVEL>
0

> <NMREDATA_SOLVENT>
CDCl3

> <NMREDATA_FORMULA>
C12H17O3P

> <NMREDATA_SMILES>
CCOP1(=O)OCc2c1c(C)c(C)cc2C

> <NMREDATA_ASSIGNMENT>
P4, 38.00, 4

> <NMREDATA_1D_31P>
Larmor=161
38.00, L=P4

$$$$
