
 OpenBabel06112616442D

 22 25  0  0  0  0  0  0  0  0999 V2000
    2.0108    1.7601    0.0000 C   0  0  0  0  0  0  0  0  0  0  0  0
    2.3198    0.8090    0.0000 C   0  0  0  0  0  0  0  0  0  0  0  0
    3.2709    0.5000    0.0000 C   0  0  0  0  0  0  0  0  0  0  0  0
    4.0799    1.0878    0.0000 C   0  0  0  0  0  0  0  0  0  0  0  0
    4.0799    2.0878    0.0000 C   0  0  0  0  0  0  0  0  0  0  0  0
    5.0310    2.3968    0.0000 C   0  0  0  0  0  0  0  0  0  0  0  0
    5.6188    1.5878    0.0000 C   0  0  0  0  0  0  0  0  0  0  0  0
    5.0310    0.7788    0.0000 C   0  0  0  0  0  0  0  0  0  0  0  0
    3.2709   -0.5000    0.0000 C   0  0  0  0  0  0  0  0  0  0  0  0
    4.0140   -1.1691    0.0000 C   0  0  0  0  0  0  0  0  0  0  0  0
    3.8061   -2.1473    0.0000 C   0  0  0  0  0  0  0  0  0  0  0  0
    2.8551   -2.4563    0.0000 C   0  0  0  0  0  0  0  0  0  0  0  0
    2.1119   -1.7872    0.0000 C   0  0  0  0  0  0  0  0  0  0  0  0
    2.3198   -0.8090    0.0000 C   0  0  0  0  0  0  0  0  0  0  0  0
    1.7321    0.0000    0.0000 P   0  0  2  0  0  0  0  0  0  0  0  0
    0.8660    0.5000    0.0000 O   0  0  0  0  0  0  0  0  0  0  0  0
    0.8660   -0.5000    0.0000 C   0  0  0  0  0  0  0  0  0  0  0  0
    0.8660   -1.5000    0.0000 C   0  0  0  0  0  0  0  0  0  0  0  0
    0.0000   -2.0000    0.0000 C   0  0  0  0  0  0  0  0  0  0  0  0
   -0.8660   -1.5000    0.0000 C   0  0  0  0  0  0  0  0  0  0  0  0
   -0.8660   -0.5000    0.0000 C   0  0  0  0  0  0  0  0  0  0  0  0
    0.0000    0.0000    0.0000 C   0  0  0  0  0  0  0  0  0  0  0  0
  1  2  1  0  0  0  0
  2 15  1  0  0  0  0
  2  3  2  0  0  0  0
  3  4  1  0  0  0  0
  3  9  1  0  0  0  0
  4  8  1  0  0  0  0
  4  5  2  0  0  0  0
  5  6  1  0  0  0  0
  6  7  1  0  0  0  0
  7  8  1  0  0  0  0
  9 14  2  0  0  0  0
  9 10  1  0  0  0  0
 10 11  2  0  0  0  0
 11 12  1  0  0  0  0
 12 13  2  0  0  0  0
 13 14  1  0  0  0  0
 14 15  1  0  0  0  0
 15 16  2  6  0  0  0
 15 17  1  0  0  0  0
 17 22  2  0  0  0  0
 17 18  1  0  0  0  0
 18 19  2  0  0  0  0
 19 20  1  0  0  0  0
 20 21  2  0  0  0  0
 21 22  1  0  0  0  0
M  END
> <NMREDATA_VERSION>
1.1

> <NMREDATA_LEVEL>
0

> <NMREDATA_SOLVENT>
CDCl3

> <NMREDATA_FORMULA>
C20H19OP

> <NMREDATA_SMILES>
CC1=C(C2=CCCC2)c2c([P@@]1(=O)c1ccccc1)cccc2

> <NMREDATA_ASSIGNMENT>
P15, 40.40, 15

> <NMREDATA_1D_31P>
Larmor=162
40.40, L=P15

$$$$
