
 OpenBabel06112616432D

 36 40  0  0  0  0  0  0  0  0999 V2000
    1.5878   -1.8090    0.0000 C   0  0  0  0  0  0  0  0  0  0  0  0
    1.2788   -2.7601    0.0000 C   0  0  0  0  0  0  0  0  0  0  0  0
    1.9479   -3.5032    0.0000 C   0  0  0  0  0  0  0  0  0  0  0  0
    1.6389   -4.4543    0.0000 C   0  0  0  0  0  0  0  0  0  0  0  0
    0.6607   -4.6622    0.0000 C   0  0  0  0  0  0  0  0  0  0  0  0
   -0.0084   -3.9190    0.0000 C   0  0  0  0  0  0  0  0  0  0  0  0
    0.3006   -2.9680    0.0000 C   0  0  0  0  0  0  0  0  0  0  0  0
    1.0000   -1.0000    0.0000 C   0  0  0  0  0  0  0  0  0  0  0  0
    0.0000   -1.0000    0.0000 P   0  0  0  0  0  0  0  0  0  0  0  0
    0.0000   -2.0000    0.0000 O   0  0  0  0  0  0  0  0  0  0  0  0
   -1.0000   -1.0000    0.0000 C   0  0  0  0  0  0  0  0  0  0  0  0
   -1.5000   -0.1340    0.0000 C   0  0  0  0  0  0  0  0  0  0  0  0
   -2.5000   -0.1340    0.0000 C   0  0  0  0  0  0  0  0  0  0  0  0
   -3.0000   -1.0000    0.0000 C   0  0  0  0  0  0  0  0  0  0  0  0
   -2.5000   -1.8660    0.0000 C   0  0  0  0  0  0  0  0  0  0  0  0
   -1.5000   -1.8660    0.0000 C   0  0  0  0  0  0  0  0  0  0  0  0
    0.0000    0.0000    0.0000 C   0  0  0  0  0  0  0  0  0  0  0  0
    0.8660    0.5000    0.0000 C   0  0  0  0  0  0  0  0  0  0  0  0
    0.8660    1.5000    0.0000 C   0  0  0  0  0  0  0  0  0  0  0  0
    0.0000    2.0000    0.0000 C   0  0  0  0  0  0  0  0  0  0  0  0
   -0.8660    1.5000    0.0000 C   0  0  0  0  0  0  0  0  0  0  0  0
   -0.8660    0.5000    0.0000 C   0  0  0  0  0  0  0  0  0  0  0  0
    1.5878   -0.1910    0.0000 C   0  0  0  0  0  0  0  0  0  0  0  0
    1.3799    0.7872    0.0000 C   0  0  0  0  0  0  0  0  0  0  0  0
    2.1230    1.4563    0.0000 C   0  0  0  0  0  0  0  0  0  0  0  0
    3.0741    1.1473    0.0000 C   0  0  0  0  0  0  0  0  0  0  0  0
    3.2820    0.1691    0.0000 C   0  0  0  0  0  0  0  0  0  0  0  0
    2.5388   -0.5000    0.0000 C   0  0  0  0  0  0  0  0  0  0  0  0
    2.5388   -1.5000    0.0000 N   0  0  0  0  0  0  0  0  0  0  0  0
    3.3479   -2.0878    0.0000 C   0  0  0  0  0  0  0  0  0  0  0  0
    3.2433   -3.0823    0.0000 O   0  0  0  0  0  0  0  0  0  0  0  0
    4.2614   -1.6810    0.0000 O   0  0  0  0  0  0  0  0  0  0  0  0
    5.0704   -2.2688    0.0000 C   0  0  0  0  0  0  0  0  0  0  0  0
    6.0649   -2.3734    0.0000 C   0  0  0  0  0  0  0  0  0  0  0  0
    5.6582   -1.4598    0.0000 C   0  0  0  0  0  0  0  0  0  0  0  0
    4.9659   -3.2634    0.0000 C   0  0  0  0  0  0  0  0  0  0  0  0
  1 29  1  0  0  0  0
  1  2  1  0  0  0  0
  1  8  2  0  0  0  0
  2  7  2  0  0  0  0
  2  3  1  0  0  0  0
  3  4  2  0  0  0  0
  4  5  1  0  0  0  0
  5  6  2  0  0  0  0
  6  7  1  0  0  0  0
  8  9  1  0  0  0  0
  8 23  1  0  0  0  0
  9 10  2  0  0  0  0
  9 11  1  0  0  0  0
  9 17  1  0  0  0  0
 11 16  2  0  0  0  0
 11 12  1  0  0  0  0
 12 13  2  0  0  0  0
 13 14  1  0  0  0  0
 14 15  2  0  0  0  0
 15 16  1  0  0  0  0
 17 22  2  0  0  0  0
 17 18  1  0  0  0  0
 18 19  2  0  0  0  0
 19 20  1  0  0  0  0
 20 21  2  0  0  0  0
 21 22  1  0  0  0  0
 23 28  2  0  0  0  0
 23 24  1  0  0  0  0
 24 25  2  0  0  0  0
 25 26  1  0  0  0  0
 26 27  2  0  0  0  0
 27 28  1  0  0  0  0
 28 29  1  0  0  0  0
 29 30  1  0  0  0  0
 30 31  2  0  0  0  0
 30 32  1  0  0  0  0
 32 33  1  0  0  0  0
 33 34  1  0  0  0  0
 33 35  1  0  0  0  0
 33 36  1  0  0  0  0
M  END
> <NMREDATA_VERSION>
1.1

> <NMREDATA_LEVEL>
0

> <NMREDATA_SOLVENT>
CDCl3

> <NMREDATA_FORMULA>
C31H28NO3P

> <NMREDATA_SMILES>
O=C(n1c2ccccc2c(c1c1ccccc1)P(=O)(c1ccccc1)c1ccccc1)OC(C)(C)C

> <NMREDATA_ASSIGNMENT>
P9, 21.10, 9

> <NMREDATA_1D_31P>
Larmor=162
21.10, L=P9

$$$$
