
 OpenBabel06112616442D

 24 26  0  0  0  0  0  0  0  0999 V2000
     1.000    -1.000     0.000 O   0  0  0  0  0  0  0  0  0  0  0  0
     1.000     0.000     0.000 P   0  0  0  0  0  0  0  0  0  0  0  0
     2.000     0.000     0.000 C   0  0  0  0  0  0  0  0  0  0  0  0
     2.500     0.866     0.000 C   0  0  0  0  0  0  0  0  0  0  0  0
     3.500     0.866     0.000 C   0  0  0  0  0  0  0  0  0  0  0  0
     4.000     0.000     0.000 C   0  0  0  0  0  0  0  0  0  0  0  0
     5.000     0.000     0.000 C   0  0  0  0  0  0  0  0  0  0  0  0
     5.866     0.500     0.000 F   0  0  0  0  0  0  0  0  0  0  0  0
     5.000     1.000     0.000 F   0  0  0  0  0  0  0  0  0  0  0  0
     5.500    -0.866     0.000 F   0  0  0  0  0  0  0  0  0  0  0  0
     3.500    -0.866     0.000 C   0  0  0  0  0  0  0  0  0  0  0  0
     2.500    -0.866     0.000 C   0  0  0  0  0  0  0  0  0  0  0  0
     1.000     1.000     0.000 C   0  0  0  0  0  0  0  0  0  0  0  0
     0.134     1.500     0.000 C   0  0  0  0  0  0  0  0  0  0  0  0
     0.134     2.500     0.000 C   0  0  0  0  0  0  0  0  0  0  0  0
     1.000     3.000     0.000 C   0  0  0  0  0  0  0  0  0  0  0  0
     1.866     2.500     0.000 C   0  0  0  0  0  0  0  0  0  0  0  0
     1.866     1.500     0.000 C   0  0  0  0  0  0  0  0  0  0  0  0
     0.000     0.000     0.000 C   0  0  0  0  0  0  0  0  0  0  0  0
    -0.500    -0.866     0.000 C   0  0  0  0  0  0  0  0  0  0  0  0
    -1.500    -0.866     0.000 C   0  0  0  0  0  0  0  0  0  0  0  0
    -2.000     0.000     0.000 C   0  0  0  0  0  0  0  0  0  0  0  0
    -1.500     0.866     0.000 C   0  0  0  0  0  0  0  0  0  0  0  0
    -0.500     0.866     0.000 C   0  0  0  0  0  0  0  0  0  0  0  0
  1  2  2  0  0  0  0
  2  3  1  0  0  0  0
  2 13  1  0  0  0  0
  2 19  1  0  0  0  0
  3 12  2  0  0  0  0
  3  4  1  0  0  0  0
  4  5  2  0  0  0  0
  5  6  1  0  0  0  0
  6  7  1  0  0  0  0
  6 11  2  0  0  0  0
  7  8  1  0  0  0  0
  7  9  1  0  0  0  0
  7 10  1  0  0  0  0
 11 12  1  0  0  0  0
 13 18  2  0  0  0  0
 13 14  1  0  0  0  0
 14 15  2  0  0  0  0
 15 16  1  0  0  0  0
 16 17  2  0  0  0  0
 17 18  1  0  0  0  0
 19 24  2  0  0  0  0
 19 20  1  0  0  0  0
 20 21  2  0  0  0  0
 21 22  1  0  0  0  0
 22 23  2  0  0  0  0
 23 24  1  0  0  0  0
M  END
> <NMREDATA_VERSION>
1.1

> <NMREDATA_LEVEL>
0

> <NMREDATA_SOLVENT>
CDCl3

> <NMREDATA_FORMULA>
C19H14F3OP

> <NMREDATA_SMILES>
FC(c1ccc(cc1)P(=O)(c1ccccc1)c1ccccc1)(F)F

> <NMREDATA_ASSIGNMENT>
P2, 28.83, 2

> <NMREDATA_1D_31P>
Larmor=162
28.83, L=P2

$$$$
