
 OpenBabel06112616452D

 36 39  0  0  1  0  0  0  0  0999 V2000
   -0.8444   -8.2875    0.0000 C   0  0  0  0  0  0  0  0  0  0  0  0
   -0.8444   -7.3125    0.0000 C   0  0  0  0  0  0  0  0  0  0  0  0
   -1.6887   -6.8250    0.0000 C   0  0  0  0  0  0  0  0  0  0  0  0
   -1.6887   -5.8500    0.0000 C   0  0  0  0  0  0  0  0  0  0  0  0
   -0.8444   -5.3625    0.0000 C   0  0  3  0  0  0  0  0  0  0  0  0
    0.0000   -5.8500    0.0000 C   0  0  0  0  0  0  0  0  0  0  0  0
    0.0000   -6.8250    0.0000 C   0  0  0  0  0  0  0  0  0  0  0  0
   -0.8444   -4.3875    0.0000 C   0  0  0  0  0  0  0  0  0  0  0  0
    0.0000   -3.9000    0.0000 O   0  0  0  0  0  0  0  0  0  0  0  0
    0.0000   -2.9250    0.0000 C   0  0  0  0  0  0  0  0  0  0  0  0
   -0.8444   -2.4375    0.0000 O   0  0  0  0  0  0  0  0  0  0  0  0
    0.8444   -2.4375    0.0000 C   0  0  0  0  0  0  0  0  0  0  0  0
    0.8444   -1.4625    0.0000 C   0  0  0  0  0  0  0  0  0  0  0  0
    0.0000   -0.9750    0.0000 C   0  0  0  0  0  0  0  0  0  0  0  0
   -0.8444   -1.4625    0.0000 C   0  0  0  0  0  0  0  0  0  0  0  0
   -1.6887   -0.9750    0.0000 C   0  0  0  0  0  0  0  0  0  0  0  0
   -1.6887    0.0000    0.0000 C   0  0  0  0  0  0  0  0  0  0  0  0
   -0.8444    0.4875    0.0000 C   0  0  0  0  0  0  0  0  0  0  0  0
   -0.8444    1.4625    0.0000 C   0  0  0  0  0  0  0  0  0  0  0  0
    0.0000    1.9500    0.0000 C   0  0  0  0  0  0  0  0  0  0  0  0
    0.8444    1.4625    0.0000 C   0  0  0  0  0  0  0  0  0  0  0  0
    0.8444    0.4875    0.0000 C   0  0  0  0  0  0  0  0  0  0  0  0
    2.5331   -0.4875    0.0000 P   0  0  0  0  0  0  0  0  0  0  0  0
    2.5331   -1.4625    0.0000 C   0  0  0  0  0  0  0  0  0  0  0  0
    3.3775   -1.9500    0.0000 C   0  0  0  0  0  0  0  0  0  0  0  0
    3.3775   -2.9250    0.0000 C   0  0  0  0  0  0  0  0  0  0  0  0
    2.5331   -3.4125    0.0000 C   0  0  0  0  0  0  0  0  0  0  0  0
    1.6887   -2.9250    0.0000 C   0  0  0  0  0  0  0  0  0  0  0  0
    1.6887   -1.9500    0.0000 C   0  0  0  0  0  0  0  0  0  0  0  0
    3.3775    0.0000    0.0000 C   0  0  0  0  0  0  0  0  0  0  0  0
    3.3775    0.9750    0.0000 C   0  0  0  0  0  0  0  0  0  0  0  0
    4.2219    1.4625    0.0000 C   0  0  0  0  0  0  0  0  0  0  0  0
    5.0662    0.9750    0.0000 C   0  0  0  0  0  0  0  0  0  0  0  0
    5.0662    0.0000    0.0000 C   0  0  0  0  0  0  0  0  0  0  0  0
    4.2219   -0.4875    0.0000 C   0  0  0  0  0  0  0  0  0  0  0  0
    0.0000    0.0000    0.0000 C   0  0  0  0  0  0  0  0  0  0  0  0
  1  2  1  0  0  0  0
  2  3  1  0  0  0  0
  3  4  1  0  0  0  0
  4  5  1  0  0  0  0
  5  6  1  0  0  0  0
  5  8  1  0  0  0  0
  6  7  1  0  0  0  0
  8  9  1  0  0  0  0
  9 10  1  0  0  0  0
 10 11  2  0  0  0  0
 10 12  1  0  0  0  0
 12 13  1  0  0  0  0
 13 14  1  0  0  0  0
 14 36  2  0  0  0  0
 14 15  1  0  0  0  0
 15 16  2  0  0  0  0
 16 17  1  0  0  0  0
 17 18  2  0  0  0  0
 18 36  1  0  0  0  0
 18 19  1  0  0  0  0
 19 20  2  0  0  0  0
 20 21  1  0  0  0  0
 21 22  2  0  0  0  0
 22 23  1  0  0  0  0
 22 36  1  0  0  0  0
 23 24  1  0  0  0  0
 23 30  1  0  0  0  0
 24 29  2  0  0  0  0
 24 25  1  0  0  0  0
 25 26  2  0  0  0  0
 26 27  1  0  0  0  0
 27 28  2  0  0  0  0
 28 29  1  0  0  0  0
 30 35  2  0  0  0  0
 30 31  1  0  0  0  0
 31 32  2  0  0  0  0
 32 33  1  0  0  0  0
 33 34  2  0  0  0  0
 34 35  1  0  0  0  0
M  END
> <NMREDATA_VERSION>
1.1

> <NMREDATA_LEVEL>
0

> <NMREDATA_SOLVENT>
CDCl3

> <NMREDATA_FORMULA>
C33H37O2P

> <NMREDATA_SMILES>
CCCCC(COC(=O)CCc1cccc2c1c(ccc2)P(c1ccccc1)c1ccccc1)CC

> <NMREDATA_ASSIGNMENT>
P23, -2.37, 23

> <NMREDATA_1D_31P>
Larmor=162
-2.37, L=P23

$$$$
