
 OpenBabel06112616452D

 37 42  0  0  1  0  0  0  0  0999 V2000
   -2.7626   -3.7394    0.0000 O   0  0  0  0  0  0  0  0  0  0  0  0
   -3.7061   -3.4866    0.0000 C   0  0  0  0  0  0  0  0  0  0  0  0
   -2.0720   -3.0487    0.0000 C   0  0  0  0  0  0  0  0  0  0  0  0
   -2.3248   -2.1053    0.0000 C   0  0  0  0  0  0  0  0  0  0  0  0
   -1.6341   -1.4146    0.0000 C   0  0  0  0  0  0  0  0  0  0  0  0
   -0.6907   -1.6674    0.0000 C   0  0  0  0  0  0  0  0  0  0  0  0
    0.0000   -0.9767    0.0000 N   0  0  0  0  0  0  0  0  0  0  0  0
    0.0000    0.0000    0.0000 C   0  0  2  0  0  0  0  0  0  0  0  0
   -0.6907    0.6907    0.0000 C   0  0  0  0  0  0  0  0  0  0  0  0
   -1.6341    0.4379    0.0000 C   0  0  0  0  0  0  0  0  0  0  0  0
   -2.3248    1.1285    0.0000 C   0  0  0  0  0  0  0  0  0  0  0  0
   -2.0720    2.0720    0.0000 C   0  0  0  0  0  0  0  0  0  0  0  0
   -1.1285    2.3248    0.0000 C   0  0  0  0  0  0  0  0  0  0  0  0
   -0.4379    1.6341    0.0000 C   0  0  0  0  0  0  0  0  0  0  0  0
    0.9767    0.0000    0.0000 C   0  0  0  0  0  0  0  0  0  0  0  0
    2.8637    0.5056    0.0000 C   0  0  0  0  0  0  0  0  0  0  0  0
    3.1165    1.4491    0.0000 C   0  0  0  0  0  0  0  0  0  0  0  0
    4.0599    1.7019    0.0000 C   0  0  0  0  0  0  0  0  0  0  0  0
    4.7506    1.0112    0.0000 C   0  0  0  0  0  0  0  0  0  0  0  0
    4.4978    0.0677    0.0000 C   0  0  0  0  0  0  0  0  0  0  0  0
    3.5543   -0.1851    0.0000 C   0  0  0  0  0  0  0  0  0  0  0  0
    1.2295    0.9435    0.0000 C   0  0  0  0  0  0  0  0  0  0  0  0
    0.5389    1.6341    0.0000 C   0  0  0  0  0  0  0  0  0  0  0  0
    0.7917    2.5776    0.0000 C   0  0  0  0  0  0  0  0  0  0  0  0
    1.7351    2.8304    0.0000 C   0  0  0  0  0  0  0  0  0  0  0  0
    2.4258    2.1397    0.0000 C   0  0  0  0  0  0  0  0  0  0  0  0
    2.1730    1.1963    0.0000 C   0  0  0  0  0  0  0  0  0  0  0  0
    0.9767   -0.9767    0.0000 P   0  0  2  0  0  0  0  0  0  0  0  0
    1.2295   -1.9202    0.0000 O   0  0  0  0  0  0  0  0  0  0  0  0
    1.9202   -1.2295    0.0000 C   0  0  0  0  0  0  0  0  0  0  0  0
    2.6109   -0.5389    0.0000 C   0  0  0  0  0  0  0  0  0  0  0  0
    3.5543   -0.7917    0.0000 C   0  0  0  0  0  0  0  0  0  0  0  0
    3.8071   -1.7351    0.0000 C   0  0  0  0  0  0  0  0  0  0  0  0
    3.1165   -2.4258    0.0000 C   0  0  0  0  0  0  0  0  0  0  0  0
    2.1730   -2.1730    0.0000 C   0  0  0  0  0  0  0  0  0  0  0  0
   -0.4379   -2.6109    0.0000 C   0  0  0  0  0  0  0  0  0  0  0  0
   -1.1285   -3.3015    0.0000 C   0  0  0  0  0  0  0  0  0  0  0  0
  1  2  1  0  0  0  0
  1  3  1  0  0  0  0
  3 37  2  0  0  0  0
  3  4  1  0  0  0  0
  4  5  2  0  0  0  0
  5  6  1  0  0  0  0
  6  7  1  0  0  0  0
  6 36  2  0  0  0  0
  7 28  1  0  0  0  0
  7  8  1  0  0  0  0
  8  9  1  6  0  0  0
  8 15  1  0  0  0  0
  9 14  2  0  0  0  0
  9 10  1  0  0  0  0
 10 11  2  0  0  0  0
 11 12  1  0  0  0  0
 12 13  2  0  0  0  0
 13 14  1  0  0  0  0
 15 16  1  0  0  0  0
 15 22  1  0  0  0  0
 15 28  1  0  0  0  0
 16 21  2  0  0  0  0
 16 17  1  0  0  0  0
 17 18  2  0  0  0  0
 18 19  1  0  0  0  0
 19 20  2  0  0  0  0
 20 21  1  0  0  0  0
 22 27  2  0  0  0  0
 22 23  1  0  0  0  0
 23 24  2  0  0  0  0
 24 25  1  0  0  0  0
 25 26  2  0  0  0  0
 26 27  1  0  0  0  0
 28 29  2  6  0  0  0
 28 30  1  0  0  0  0
 30 35  2  0  0  0  0
 30 31  1  0  0  0  0
 31 32  2  0  0  0  0
 32 33  1  0  0  0  0
 33 34  2  0  0  0  0
 34 35  1  0  0  0  0
 36 37  1  0  0  0  0
M  END
> <NMREDATA_VERSION>
1.1

> <NMREDATA_LEVEL>
0

> <NMREDATA_SOLVENT>
CDCl3

> <NMREDATA_FORMULA>
C33H28NO2P

> <NMREDATA_SMILES>
COc1ccc(cc1)N1[C@H](c2ccccc2)C([P@@]1(=O)c1ccccc1)(c1ccccc1)c1ccccc1

> <NMREDATA_ASSIGNMENT>
P28, 40.25, 28

> <NMREDATA_1D_31P>
Larmor=162
40.25, L=P28

$$$$
