
 OpenBabel06112616452D

 33 37  0  0  0  0  0  0  0  0999 V2000
   -3.7327    3.9553    0.0000 C   0  0  0  0  0  0  0  0  0  0  0  0
   -2.9895    3.2862    0.0000 C   0  0  0  0  0  0  0  0  0  0  0  0
   -2.0385    3.5952    0.0000 C   0  0  0  0  0  0  0  0  0  0  0  0
   -1.2953    2.9260    0.0000 C   0  0  0  0  0  0  0  0  0  0  0  0
   -1.5032    1.9479    0.0000 C   0  0  0  0  0  0  0  0  0  0  0  0
   -0.7601    1.2788    0.0000 C   0  0  0  0  0  0  0  0  0  0  0  0
   -0.9680    0.3006    0.0000 C   0  0  0  0  0  0  0  0  0  0  0  0
   -1.9190   -0.0084    0.0000 F   0  0  0  0  0  0  0  0  0  0  0  0
    0.1910    1.5878    0.0000 C   0  0  0  0  0  0  0  0  0  0  0  0
    1.0000    1.0000    0.0000 C   0  0  0  0  0  0  0  0  0  0  0  0
    1.0000    0.0000    0.0000 P   0  0  0  0  0  0  0  0  0  0  0  0
    2.0000    0.0000    0.0000 C   0  0  0  0  0  0  0  0  0  0  0  0
    2.5000   -0.8660    0.0000 C   0  0  0  0  0  0  0  0  0  0  0  0
    3.5000   -0.8660    0.0000 C   0  0  0  0  0  0  0  0  0  0  0  0
    4.0000    0.0000    0.0000 C   0  0  0  0  0  0  0  0  0  0  0  0
    3.5000    0.8660    0.0000 C   0  0  0  0  0  0  0  0  0  0  0  0
    2.5000    0.8660    0.0000 C   0  0  0  0  0  0  0  0  0  0  0  0
    1.0000   -1.0000    0.0000 C   0  0  0  0  0  0  0  0  0  0  0  0
    0.1340   -1.5000    0.0000 C   0  0  0  0  0  0  0  0  0  0  0  0
    0.1340   -2.5000    0.0000 C   0  0  0  0  0  0  0  0  0  0  0  0
    1.0000   -3.0000    0.0000 C   0  0  0  0  0  0  0  0  0  0  0  0
    1.8660   -2.5000    0.0000 C   0  0  0  0  0  0  0  0  0  0  0  0
    1.8660   -1.5000    0.0000 C   0  0  0  0  0  0  0  0  0  0  0  0
    0.0000    0.0000    0.0000 O   0  0  0  0  0  0  0  0  0  0  0  0
    1.8090    1.5878    0.0000 N   0  0  0  0  0  0  0  0  0  0  0  0
    1.5000    2.5388    0.0000 C   0  0  0  0  0  0  0  0  0  0  0  0
    2.0000    3.4049    0.0000 C   0  0  0  0  0  0  0  0  0  0  0  0
    1.5000    4.2709    0.0000 C   0  0  0  0  0  0  0  0  0  0  0  0
    0.5000    4.2709    0.0000 C   0  0  0  0  0  0  0  0  0  0  0  0
    0.0000    3.4049    0.0000 C   0  0  0  0  0  0  0  0  0  0  0  0
    0.5000    2.5388    0.0000 C   0  0  0  0  0  0  0  0  0  0  0  0
   -2.4543    1.6389    0.0000 C   0  0  0  0  0  0  0  0  0  0  0  0
   -3.1974    2.3080    0.0000 C   0  0  0  0  0  0  0  0  0  0  0  0
  1  2  1  0  0  0  0
  2 33  2  0  0  0  0
  2  3  1  0  0  0  0
  3  4  2  0  0  0  0
  4  5  1  0  0  0  0
  5  6  1  0  0  0  0
  5 32  2  0  0  0  0
  6  7  2  0  0  0  0
  6  9  1  0  0  0  0
  7  8  1  0  0  0  0
  9 31  1  0  0  0  0
  9 10  2  0  0  0  0
 10 11  1  0  0  0  0
 10 25  1  0  0  0  0
 11 12  1  0  0  0  0
 11 18  1  0  0  0  0
 11 24  2  0  0  0  0
 12 17  2  0  0  0  0
 12 13  1  0  0  0  0
 13 14  2  0  0  0  0
 14 15  1  0  0  0  0
 15 16  2  0  0  0  0
 16 17  1  0  0  0  0
 18 23  2  0  0  0  0
 18 19  1  0  0  0  0
 19 20  2  0  0  0  0
 20 21  1  0  0  0  0
 21 22  2  0  0  0  0
 22 23  1  0  0  0  0
 25 26  1  0  0  0  0
 26 31  2  0  0  0  0
 26 27  1  0  0  0  0
 27 28  2  0  0  0  0
 28 29  1  0  0  0  0
 29 30  2  0  0  0  0
 30 31  1  0  0  0  0
 32 33  1  0  0  0  0
M  END
> <NMREDATA_VERSION>
1.1

> <NMREDATA_LEVEL>
0

> <NMREDATA_SOLVENT>
CDCl3

> <NMREDATA_FORMULA>
C29H23FNOP

> <NMREDATA_SMILES>
F/C=C(/c1c2ccccc2[nH]c1P(=O)(c1ccccc1)c1ccccc1)\c1ccc(cc1)C

> <NMREDATA_ASSIGNMENT>
P11, 21.93, 11

> <NMREDATA_1D_31P>
Larmor=162
21.93, L=P11

$$$$
