
 OpenBabel06112616472D

 51 58  0  0  0  0  0  0  0  0999 V2000
    6.9425    2.4576    0.0000 O   0  0  0  0  0  0  0  0  0  0  0  0
    7.7938    1.9661    0.0000 C   0  0  0  0  0  0  0  0  0  0  0  0
    8.6452    2.4576    0.0000 C   0  0  0  0  0  0  0  0  0  0  0  0
    8.6452    3.4407    0.0000 C   0  0  0  0  0  0  0  0  0  0  0  0
    9.4965    3.9322    0.0000 C   0  0  0  0  0  0  0  0  0  0  0  0
   10.3479    3.4407    0.0000 C   0  0  0  0  0  0  0  0  0  0  0  0
   10.3479    2.4576    0.0000 C   0  0  0  0  0  0  0  0  0  0  0  0
    9.4965    1.9661    0.0000 C   0  0  0  0  0  0  0  0  0  0  0  0
    6.0911    1.9661    0.0000 C   0  0  0  0  0  0  0  0  0  0  0  0
    5.2398    2.4576    0.0000 C   0  0  0  0  0  0  0  0  0  0  0  0
    4.3884    1.9661    0.0000 C   0  0  0  0  0  0  0  0  0  0  0  0
    4.3884    0.9831    0.0000 C   0  0  0  0  0  0  0  0  0  0  0  0
    3.5371    0.4915    0.0000 N   0  0  0  0  0  0  0  0  0  0  0  0
    3.5371   -0.4915    0.0000 C   0  0  0  0  0  0  0  0  0  0  0  0
    1.8344   -1.4746    0.0000 C   0  0  0  0  0  0  0  0  0  0  0  0
    0.9831   -0.9831    0.0000 C   0  0  0  0  0  0  0  0  0  0  0  0
    0.9831    0.0000    0.0000 P   0  0  0  0  0  0  0  0  0  0  0  0
    1.9661    0.0000    0.0000 O   0  0  0  0  0  0  0  0  0  0  0  0
    0.9831    0.9831    0.0000 C   0  0  0  0  0  0  0  0  0  0  0  0
    0.1317    1.4746    0.0000 C   0  0  0  0  0  0  0  0  0  0  0  0
    0.1317    2.4576    0.0000 C   0  0  0  0  0  0  0  0  0  0  0  0
   -0.7196    2.9492    0.0000 C   0  0  0  0  0  0  0  0  0  0  0  0
    0.9831    2.9492    0.0000 C   0  0  0  0  0  0  0  0  0  0  0  0
    1.8344    2.4576    0.0000 C   0  0  0  0  0  0  0  0  0  0  0  0
    2.6857    2.9492    0.0000 C   0  0  0  0  0  0  0  0  0  0  0  0
    1.8344    1.4746    0.0000 C   0  0  0  0  0  0  0  0  0  0  0  0
    0.0000    0.0000    0.0000 C   0  0  0  0  0  0  0  0  0  0  0  0
   -0.4915   -0.8513    0.0000 C   0  0  0  0  0  0  0  0  0  0  0  0
   -1.4746   -0.8513    0.0000 C   0  0  0  0  0  0  0  0  0  0  0  0
   -1.9661   -1.7027    0.0000 C   0  0  0  0  0  0  0  0  0  0  0  0
   -1.9661    0.0000    0.0000 C   0  0  0  0  0  0  0  0  0  0  0  0
   -1.4746    0.8513    0.0000 C   0  0  0  0  0  0  0  0  0  0  0  0
   -1.9661    1.7027    0.0000 C   0  0  0  0  0  0  0  0  0  0  0  0
   -0.4915    0.8513    0.0000 C   0  0  0  0  0  0  0  0  0  0  0  0
    0.1317   -1.4746    0.0000 C   0  0  0  0  0  0  0  0  0  0  0  0
    0.1317   -2.4576    0.0000 C   0  0  0  0  0  0  0  0  0  0  0  0
    0.9831   -2.9492    0.0000 C   0  0  0  0  0  0  0  0  0  0  0  0
    0.9831   -3.9322    0.0000 C   0  0  0  0  0  0  0  0  0  0  0  0
    1.8344   -4.4237    0.0000 C   0  0  0  0  0  0  0  0  0  0  0  0
    2.6857   -3.9322    0.0000 C   0  0  0  0  0  0  0  0  0  0  0  0
    2.6857   -2.9492    0.0000 C   0  0  0  0  0  0  0  0  0  0  0  0
    1.8344   -2.4576    0.0000 C   0  0  0  0  0  0  0  0  0  0  0  0
    4.3884   -0.9831    0.0000 C   0  0  0  0  0  0  0  0  0  0  0  0
    4.5928   -1.9446    0.0000 C   0  0  0  0  0  0  0  0  0  0  0  0
    3.9350   -2.6752    0.0000 C   0  0  0  0  0  0  0  0  0  0  0  0
    5.5705   -2.0474    0.0000 C   0  0  0  0  0  0  0  0  0  0  0  0
    5.9703   -1.1493    0.0000 C   0  0  0  0  0  0  0  0  0  0  0  0
    6.9319   -0.9449    0.0000 C   0  0  0  0  0  0  0  0  0  0  0  0
    5.2398   -0.4915    0.0000 N   0  0  0  0  0  0  0  0  0  0  0  0
    5.2398    0.4915    0.0000 C   0  0  0  0  0  0  0  0  0  0  0  0
    6.0911    0.9831    0.0000 C   0  0  0  0  0  0  0  0  0  0  0  0
  1  2  1  0  0  0  0
  1  9  1  0  0  0  0
  2  3  1  0  0  0  0
  3  8  2  0  0  0  0
  3  4  1  0  0  0  0
  4  5  2  0  0  0  0
  5  6  1  0  0  0  0
  6  7  2  0  0  0  0
  7  8  1  0  0  0  0
  9 51  2  0  0  0  0
  9 10  1  0  0  0  0
 10 11  2  0  0  0  0
 11 12  1  0  0  0  0
 12 50  2  0  0  0  0
 12 13  1  0  0  0  0
 13 14  2  0  0  0  0
 14 15  1  0  0  0  0
 14 43  1  0  0  0  0
 15 42  2  0  0  0  0
 15 16  1  0  0  0  0
 16 17  1  0  0  0  0
 16 35  2  0  0  0  0
 17 18  2  0  0  0  0
 17 19  1  0  0  0  0
 17 27  1  0  0  0  0
 19 26  2  0  0  0  0
 19 20  1  0  0  0  0
 20 21  2  0  0  0  0
 21 22  1  0  0  0  0
 21 23  1  0  0  0  0
 23 24  2  0  0  0  0
 24 25  1  0  0  0  0
 24 26  1  0  0  0  0
 27 34  2  0  0  0  0
 27 28  1  0  0  0  0
 28 29  2  0  0  0  0
 29 30  1  0  0  0  0
 29 31  1  0  0  0  0
 31 32  2  0  0  0  0
 32 33  1  0  0  0  0
 32 34  1  0  0  0  0
 35 36  1  0  0  0  0
 36 37  2  0  0  0  0
 37 42  1  0  0  0  0
 37 38  1  0  0  0  0
 38 39  2  0  0  0  0
 39 40  1  0  0  0  0
 40 41  2  0  0  0  0
 41 42  1  0  0  0  0
 43 49  1  0  0  0  0
 43 44  2  0  0  0  0
 44 45  1  0  0  0  0
 44 46  1  0  0  0  0
 46 47  2  0  0  0  0
 47 48  1  0  0  0  0
 47 49  1  0  0  0  0
 49 50  1  0  0  0  0
 50 51  1  0  0  0  0
M  END
> <NMREDATA_VERSION>
1.1

> <NMREDATA_LEVEL>
0

> <NMREDATA_SOLVENT>
CDCl3

> <NMREDATA_FORMULA>
C46H41N2O2P

> <NMREDATA_SMILES>
Cc1cc(C)cc(c1)P(=O)(c1ccc2c(c1c1nc3ccc(cc3n3c1c(C)cc3C)OCc1ccccc1)cccc2)c1cc(C)cc(c1)C

> <NMREDATA_ASSIGNMENT>
P17, 31.10, 17

> <NMREDATA_1D_31P>
Larmor=162
31.10, L=P17

$$$$
