
 OpenBabel06112616462D

 23 25  0  0  1  0  0  0  0  0999 V2000
    1.5214   -0.6774    0.0000 C   0  0  0  0  0  0  0  0  0  0  0  0
    0.5652   -0.7779    0.0000 C   0  0  0  0  0  0  0  0  0  0  0  0
    0.1741   -1.6563    0.0000 C   0  0  0  0  0  0  0  0  0  0  0  0
   -0.7822   -1.7568    0.0000 C   0  0  0  0  0  0  0  0  0  0  0  0
   -1.3474   -0.9789    0.0000 C   0  0  0  0  0  0  0  0  0  0  0  0
   -3.2599   -1.1799    0.0000 C   0  0  1  0  0  0  0  0  0  0  0  0
   -3.7407   -2.0127    0.0000 C   0  0  0  0  0  0  0  0  0  0  0  0
   -4.6812   -1.8127    0.0000 C   0  0  0  0  0  0  0  0  0  0  0  0
   -4.7817   -0.8565    0.0000 C   0  0  2  0  0  0  0  0  0  0  0  0
   -5.6144   -0.3757    0.0000 C   0  0  0  0  0  0  0  0  0  0  0  0
   -6.4471   -0.8565    0.0000 C   0  0  0  0  0  0  0  0  0  0  0  0
   -7.2799   -0.3757    0.0000 C   0  0  0  0  0  0  0  0  0  0  0  0
   -7.2799    0.5858    0.0000 C   0  0  0  0  0  0  0  0  0  0  0  0
   -8.1126    1.0666    0.0000 C   0  0  0  0  0  0  0  0  0  0  0  0
   -6.4471    1.0666    0.0000 C   0  0  0  0  0  0  0  0  0  0  0  0
   -5.6144    0.5858    0.0000 C   0  0  0  0  0  0  0  0  0  0  0  0
   -3.9033   -0.4654    0.0000 P   0  0  3  0  0  0  0  0  0  0  0  0
   -3.2599    0.2492    0.0000 N   0  0  0  0  0  0  0  0  0  0  0  0
   -2.3194    0.0493    0.0000 C   0  0  0  0  0  0  0  0  0  0  0  0
   -3.5570    1.1637    0.0000 C   0  0  0  0  0  0  0  0  0  0  0  0
   -4.2004    0.4491    0.0000 O   0  0  0  0  0  0  0  0  0  0  0  0
   -0.9563   -0.1005    0.0000 C   0  0  0  0  0  0  0  0  0  0  0  0
    0.0000    0.0000    0.0000 C   0  0  0  0  0  0  0  0  0  0  0  0
  1  2  1  0  0  0  0
  2 23  2  0  0  0  0
  2  3  1  0  0  0  0
  3  4  2  0  0  0  0
  4  5  1  0  0  0  0
  5 22  2  0  0  0  0
  6  5  1  1  0  0  0
  6  7  1  0  0  0  0
  6 17  1  0  0  0  0
  7  8  1  0  0  0  0
  8  9  1  0  0  0  0
  9 10  1  6  0  0  0
  9 17  1  0  0  0  0
 10 16  2  0  0  0  0
 10 11  1  0  0  0  0
 11 12  2  0  0  0  0
 12 13  1  0  0  0  0
 13 14  1  0  0  0  0
 13 15  2  0  0  0  0
 15 16  1  0  0  0  0
 17 18  1  0  0  0  0
 17 21  2  0  0  0  0
 18 19  1  0  0  0  0
 18 20  1  0  0  0  0
 22 23  1  0  0  0  0
M  END
> <NMREDATA_VERSION>
1.1

> <NMREDATA_LEVEL>
0

> <NMREDATA_SOLVENT>
CDCl3

> <NMREDATA_FORMULA>
C20H26NOP

> <NMREDATA_SMILES>
CN(P1(=O)[C@H](CC[C@@H]1c1ccc(cc1)C)c1ccc(cc1)C)C

> <NMREDATA_ASSIGNMENT>
P17, 59.45, 17

> <NMREDATA_1D_31P>
Larmor=161
59.45, L=P17

$$$$
