
 OpenBabel06112616432D

 32 36  0  0  1  0  0  0  0  0999 V2000
   -4.9453    1.8822    0.0000 C   0  0  0  0  0  0  0  0  0  0  0  0
   -4.4588    1.0396    0.0000 C   0  0  0  0  0  0  0  0  0  0  0  0
   -4.9453    0.1970    0.0000 C   0  0  0  0  0  0  0  0  0  0  0  0
   -4.4588   -0.6457    0.0000 C   0  0  0  0  0  0  0  0  0  0  0  0
   -3.4858   -0.6457    0.0000 C   0  0  0  0  0  0  0  0  0  0  0  0
   -2.9994    0.1970    0.0000 C   0  0  0  0  0  0  0  0  0  0  0  0
   -3.4858    1.0396    0.0000 C   0  0  0  0  0  0  0  0  0  0  0  0
   -2.0476   -0.0053    0.0000 N   0  0  0  0  0  0  0  0  0  0  0  0
   -1.9459   -0.9730    0.0000 C   0  0  3  0  0  0  0  0  0  0  0  0
   -1.4595   -1.8156    0.0000 C   0  0  0  0  0  0  0  0  0  0  0  0
   -0.4865   -1.8156    0.0000 C   0  0  0  0  0  0  0  0  0  0  0  0
    0.0000   -2.6582    0.0000 C   0  0  0  0  0  0  0  0  0  0  0  0
   -0.4865   -3.5008    0.0000 C   0  0  0  0  0  0  0  0  0  0  0  0
   -1.4595   -3.5008    0.0000 C   0  0  0  0  0  0  0  0  0  0  0  0
   -1.9459   -2.6582    0.0000 C   0  0  0  0  0  0  0  0  0  0  0  0
    0.0000   -0.9730    0.0000 P   0  0  3  0  0  0  0  0  0  0  0  0
    0.0000   -1.9459    0.0000 O   0  0  0  0  0  0  0  0  0  0  0  0
    0.9730   -0.9730    0.0000 O   0  0  0  0  0  0  0  0  0  0  0  0
    1.4595   -1.8156    0.0000 C   0  0  0  0  0  0  0  0  0  0  0  0
    2.4324   -1.8156    0.0000 C   0  0  0  0  0  0  0  0  0  0  0  0
    2.9189   -2.6582    0.0000 C   0  0  0  0  0  0  0  0  0  0  0  0
    2.4324   -3.5008    0.0000 C   0  0  0  0  0  0  0  0  0  0  0  0
    1.4595   -3.5008    0.0000 C   0  0  0  0  0  0  0  0  0  0  0  0
    0.9730   -2.6582    0.0000 C   0  0  0  0  0  0  0  0  0  0  0  0
    0.0000    0.0000    0.0000 C   0  0  0  0  0  0  0  0  0  0  0  0
   -0.8426    0.4865    0.0000 C   0  0  0  0  0  0  0  0  0  0  0  0
   -0.8426    1.4595    0.0000 C   0  0  0  0  0  0  0  0  0  0  0  0
    0.0000    1.9459    0.0000 C   0  0  0  0  0  0  0  0  0  0  0  0
    0.8426    1.4595    0.0000 C   0  0  0  0  0  0  0  0  0  0  0  0
    0.8426    0.4865    0.0000 C   0  0  0  0  0  0  0  0  0  0  0  0
   -2.8348   -1.3687    0.0000 C   0  0  0  0  0  0  0  0  0  0  0  0
   -3.0371   -2.3204    0.0000 O   0  0  0  0  0  0  0  0  0  0  0  0
  1  2  1  0  0  0  0
  2  7  2  0  0  0  0
  2  3  1  0  0  0  0
  3  4  2  0  0  0  0
  4  5  1  0  0  0  0
  5 31  1  0  0  0  0
  5  6  2  0  0  0  0
  6  7  1  0  0  0  0
  6  8  1  0  0  0  0
  8  9  1  0  0  0  0
  9 10  1  0  0  0  0
  9 16  1  0  0  0  0
  9 31  1  0  0  0  0
 10 15  2  0  0  0  0
 10 11  1  0  0  0  0
 11 12  2  0  0  0  0
 12 13  1  0  0  0  0
 13 14  2  0  0  0  0
 14 15  1  0  0  0  0
 16 17  2  0  0  0  0
 16 18  1  0  0  0  0
 16 25  1  0  0  0  0
 18 19  1  0  0  0  0
 19 24  2  0  0  0  0
 19 20  1  0  0  0  0
 20 21  2  0  0  0  0
 21 22  1  0  0  0  0
 22 23  2  0  0  0  0
 23 24  1  0  0  0  0
 25 30  2  0  0  0  0
 25 26  1  0  0  0  0
 26 27  2  0  0  0  0
 27 28  1  0  0  0  0
 28 29  2  0  0  0  0
 29 30  1  0  0  0  0
 31 32  2  0  0  0  0
M  END
> <NMREDATA_VERSION>
1.1

> <NMREDATA_LEVEL>
0

> <NMREDATA_SOLVENT>
CDCl3

> <NMREDATA_FORMULA>
C27H22NO3P

> <NMREDATA_SMILES>
Cc1ccc2c(c1)NC(C2=O)(c1ccccc1)P(=O)(c1ccccc1)Oc1ccccc1

> <NMREDATA_ASSIGNMENT>
P16, 29.65, 16

> <NMREDATA_1D_31P>
Larmor=202
29.65, L=P16

$$$$
