
 OpenBabel06112616492D

 19 21  0  0  0  0  0  0  0  0999 V2000
    1.5970   -0.4279    0.0000 O   0  0  0  0  0  0  0  0  0  0  0  0
    0.6750   -0.6750    0.0000 C   0  0  0  0  0  0  0  0  0  0  0  0
    0.4279   -1.5970    0.0000 C   0  0  0  0  0  0  0  0  0  0  0  0
   -0.4941   -1.8440    0.0000 C   0  0  0  0  0  0  0  0  0  0  0  0
   -1.1691   -1.1691    0.0000 C   0  0  0  0  0  0  0  0  0  0  0  0
   -3.0131   -1.6632    0.0000 P   0  0  2  0  0  0  0  0  0  0  0  0
   -3.1377   -2.6096    0.0000 O   0  0  0  0  0  0  0  0  0  0  0  0
   -3.8398   -2.1405    0.0000 C   0  0  0  0  0  0  0  0  0  0  0  0
   -4.6664   -1.6632    0.0000 C   0  0  0  0  0  0  0  0  0  0  0  0
   -4.6664   -0.7086    0.0000 O   0  0  0  0  0  0  0  0  0  0  0  0
   -3.8398   -0.2314    0.0000 C   0  0  0  0  0  0  0  0  0  0  0  0
   -3.8398    0.7232    0.0000 C   0  0  0  0  0  0  0  0  0  0  0  0
   -3.0131    1.2005    0.0000 C   0  0  0  0  0  0  0  0  0  0  0  0
   -2.1865    0.7232    0.0000 C   0  0  0  0  0  0  0  0  0  0  0  0
   -2.1865   -0.2314    0.0000 C   0  0  0  0  0  0  0  0  0  0  0  0
   -3.0131   -0.7086    0.0000 C   0  0  0  0  0  0  0  0  0  0  0  0
   -0.9220   -0.2471    0.0000 C   0  0  0  0  0  0  0  0  0  0  0  0
    0.0000    0.0000    0.0000 C   0  0  0  0  0  0  0  0  0  0  0  0
    2.2720   -1.1029    0.0000 C   0  0  0  0  0  0  0  0  0  0  0  0
  1  2  1  0  0  0  0
  1 19  1  0  0  0  0
  2 18  2  0  0  0  0
  2  3  1  0  0  0  0
  3  4  2  0  0  0  0
  4  5  1  0  0  0  0
  5  6  1  0  0  0  0
  5 17  2  0  0  0  0
  6 16  1  0  0  0  0
  6  7  2  1  0  0  0
  6  8  1  0  0  0  0
  8  9  1  0  0  0  0
  9 10  1  0  0  0  0
 10 11  1  0  0  0  0
 11 16  2  0  0  0  0
 11 12  1  0  0  0  0
 12 13  2  0  0  0  0
 13 14  1  0  0  0  0
 14 15  2  0  0  0  0
 15 16  1  0  0  0  0
 17 18  1  0  0  0  0
M  END
> <NMREDATA_VERSION>
1.1

> <NMREDATA_LEVEL>
0

> <NMREDATA_SOLVENT>
CDCl3

> <NMREDATA_FORMULA>
C15H15O3P

> <NMREDATA_SMILES>
COc1ccc(cc1)[P@]1(=O)CCOc2c1cccc2

> <NMREDATA_ASSIGNMENT>
P6, 15.70, 6

> <NMREDATA_1D_31P>
Larmor=162
15.70, L=P6

$$$$
