
 OpenBabel06112616452D

 26 29  0  0  1  0  0  0  0  0999 V2000
   -0.6958   -4.4255    0.0000 C   0  0  0  0  0  0  0  0  0  0  0  0
   -0.0267   -3.6823    0.0000 O   0  0  0  0  0  0  0  0  0  0  0  0
   -0.3357   -2.7313    0.0000 C   0  0  0  0  0  0  0  0  0  0  0  0
    0.3334   -1.9881    0.0000 C   0  0  0  0  0  0  0  0  0  0  0  0
    0.0244   -1.0371    0.0000 C   0  0  0  0  0  0  0  0  0  0  0  0
   -0.9537   -0.8292    0.0000 C   0  0  0  0  0  0  0  0  0  0  0  0
   -1.2627    0.1219    0.0000 P   0  0  2  0  0  0  0  0  0  0  0  0
   -0.3117    0.4309    0.0000 N   0  0  0  0  0  0  0  0  0  0  0  0
    0.4973   -0.1569    0.0000 S   0  0  0  0  0  0  0  0  0  0  0  0
    0.9973   -1.0229    0.0000 O   0  0  0  0  0  0  0  0  0  0  0  0
   -0.0027   -1.0229    0.0000 O   0  0  0  0  0  0  0  0  0  0  0  0
    1.3064    0.4309    0.0000 C   0  0  0  0  0  0  0  0  0  0  0  0
    0.9973    1.3820    0.0000 C   0  0  3  0  0  0  0  0  0  0  0  0
    1.3064    2.3330    0.0000 C   0  0  0  0  0  0  0  0  0  0  0  0
    1.9755    3.0762    0.0000 C   0  0  0  0  0  0  0  0  0  0  0  0
    5.7420   -9.8413    0.0000 C   0  0  0  0  0  0  0  0  0  0  0  0
    0.4973    2.9208    0.0000 C   0  0  3  0  0  0  0  0  0  0  0  0
    1.2887    2.7526    0.0000 C   0  0  0  0  0  0  0  0  0  0  0  0
    1.5387    1.9832    0.0000 C   0  0  0  0  0  0  0  0  0  0  0  0
   -0.3117    2.3330    0.0000 C   0  0  0  0  0  0  0  0  0  0  0  0
   -0.0027    1.3820    0.0000 C   0  0  3  0  0  0  0  0  0  0  0  0
   -2.2138   -0.1871    0.0000 O   0  0  0  0  0  0  0  0  0  0  0  0
   -2.4217   -1.1653    0.0000 C   0  0  0  0  0  0  0  0  0  0  0  0
   -1.5718    1.0729    0.0000 O   0  0  0  0  0  0  0  0  0  0  0  0
   -1.6229   -1.5723    0.0000 C   0  0  0  0  0  0  0  0  0  0  0  0
   -1.3138   -2.5234    0.0000 C   0  0  0  0  0  0  0  0  0  0  0  0
  1  2  1  0  0  0  0
  2  3  1  0  0  0  0
  3 26  2  0  0  0  0
  3  4  1  0  0  0  0
  4  5  2  0  0  0  0
  5  6  1  0  0  0  0
  6  7  1  0  0  0  0
  6 25  2  0  0  0  0
  7  8  1  0  0  0  0
  7 22  1  0  0  0  0
  7 24  2  6  0  0  0
  8 21  1  0  0  0  0
  8  9  1  0  0  0  0
  9 10  2  0  0  0  0
  9 11  2  0  0  0  0
  9 12  1  0  0  0  0
 12 13  1  0  0  0  0
 13 19  1  0  0  0  0
 13 21  1  0  0  0  0
 13 14  1  0  0  0  0
 14 15  1  0  0  0  0
 14 16  1  0  0  0  0
 14 17  1  0  0  0  0
 17 18  1  0  0  0  0
 17 20  1  0  0  0  0
 18 19  1  0  0  0  0
 20 21  1  0  0  0  0
 22 23  1  0  0  0  0
 25 26  1  0  0  0  0
M  END
> <NMREDATA_VERSION>
1.1

> <NMREDATA_LEVEL>
0

> <NMREDATA_FORMULA>
C18H26NO5PS

> <NMREDATA_SMILES>
COc1ccc(cc1)[P@](=O)(N1C2CC3C(C2(CS1(=O)=O)CC3)(C)C)OC

> <NMREDATA_ASSIGNMENT>
P7, 17.70, 7

> <NMREDATA_1D_31P>
Larmor=not_known
17.70, L=P7

$$$$
