
 OpenBabel06112616442D

 36 40  0  0  1  0  0  0  0  0999 V2000
   -2.2112   -1.7180    0.0000 C   0  0  0  0  0  0  0  0  0  0  0  0
   -1.2823   -1.7667    0.0000 C   0  0  0  0  0  0  0  0  0  0  0  0
   -0.8599   -2.5956    0.0000 C   0  0  0  0  0  0  0  0  0  0  0  0
   -0.7756   -0.9866    0.0000 O   0  0  0  0  0  0  0  0  0  0  0  0
   -1.1979   -0.1577    0.0000 C   0  0  0  0  0  0  0  0  0  0  0  0
   -0.6913    0.6224    0.0000 C   0  0  1  0  0  0  0  0  0  0  0  0
   -1.3551    1.2742    0.0000 C   0  0  0  0  0  0  0  0  0  0  0  0
   -0.3129    1.4723    0.0000 C   0  0  1  0  0  0  0  0  0  0  0  0
   -0.3129    2.4025    0.0000 C   0  0  0  0  0  0  0  0  0  0  0  0
    0.4927    2.8676    0.0000 C   0  0  0  0  0  0  0  0  0  0  0  0
    0.4927    3.7978    0.0000 C   0  0  0  0  0  0  0  0  0  0  0  0
   -0.3129    4.2630    0.0000 C   0  0  0  0  0  0  0  0  0  0  0  0
   -0.3129    5.1932    0.0000 C   0  0  0  0  0  0  0  0  0  0  0  0
   -1.1185    5.6583    0.0000 C   0  0  0  0  0  0  0  0  0  0  0  0
   -1.9241    5.1932    0.0000 C   0  0  0  0  0  0  0  0  0  0  0  0
   -1.9241    4.2630    0.0000 C   0  0  0  0  0  0  0  0  0  0  0  0
   -1.1185    3.7978    0.0000 C   0  0  0  0  0  0  0  0  0  0  0  0
   -1.1185    2.8676    0.0000 C   0  0  0  0  0  0  0  0  0  0  0  0
   -1.1185    1.9374    0.0000 C   0  0  0  0  0  0  0  0  0  0  0  0
    0.6122    1.3750    0.0000 N   0  0  0  0  0  0  0  0  0  0  0  0
    3.1020    4.1402    0.0000 P   0  0  0  0  0  0  0  0  0  0  0  0
    4.0119    3.9468    0.0000 C   0  0  0  0  0  0  0  0  0  0  0  0
    4.6343    4.6381    0.0000 C   0  0  0  0  0  0  0  0  0  0  0  0
    5.5442    4.4447    0.0000 C   0  0  0  0  0  0  0  0  0  0  0  0
    5.8317    3.5600    0.0000 C   0  0  0  0  0  0  0  0  0  0  0  0
    5.2093    2.8687    0.0000 C   0  0  0  0  0  0  0  0  0  0  0  0
    4.2993    3.0621    0.0000 C   0  0  0  0  0  0  0  0  0  0  0  0
    2.8145    5.0249    0.0000 C   0  0  0  0  0  0  0  0  0  0  0  0
    1.9046    5.2183    0.0000 C   0  0  0  0  0  0  0  0  0  0  0  0
    1.6172    6.1030    0.0000 C   0  0  0  0  0  0  0  0  0  0  0  0
    2.2396    6.7943    0.0000 C   0  0  0  0  0  0  0  0  0  0  0  0
    3.1495    6.6009    0.0000 C   0  0  0  0  0  0  0  0  0  0  0  0
    3.4370    5.7162    0.0000 C   0  0  0  0  0  0  0  0  0  0  0  0
    0.8056    0.4651    0.0000 C   0  0  0  0  0  0  0  0  0  0  0  0
    0.0000    0.0000    0.0000 N   0  0  0  0  0  0  0  0  0  0  0  0
   -2.1269   -0.1090    0.0000 O   0  0  0  0  0  0  0  0  0  0  0  0
  1  2  1  0  0  0  0
  2  3  1  0  0  0  0
  2  4  1  0  0  0  0
  4  5  1  0  0  0  0
  5  6  1  0  0  0  0
  5 36  2  0  0  0  0
  6 35  1  0  0  0  0
  6  7  1  6  0  0  0
  6  8  1  0  0  0  0
  8  9  1  0  0  0  0
  8 19  1  1  0  0  0
  8 20  1  0  0  0  0
  9 18  2  0  0  0  0
  9 10  1  0  0  0  0
 10 11  2  0  0  0  0
 11 12  1  0  0  0  0
 12 17  2  0  0  0  0
 12 13  1  0  0  0  0
 13 14  2  0  0  0  0
 14 15  1  0  0  0  0
 15 16  2  0  0  0  0
 16 17  1  0  0  0  0
 17 18  1  0  0  0  0
 20 21  1  0  0  0  0
 20 34  1  0  0  0  0
 21 22  1  0  0  0  0
 21 28  1  0  0  0  0
 22 27  2  0  0  0  0
 22 23  1  0  0  0  0
 23 24  2  0  0  0  0
 24 25  1  0  0  0  0
 25 26  2  0  0  0  0
 26 27  1  0  0  0  0
 28 33  2  0  0  0  0
 28 29  1  0  0  0  0
 29 30  2  0  0  0  0
 30 31  1  0  0  0  0
 31 32  2  0  0  0  0
 32 33  1  0  0  0  0
 34 35  2  0  0  0  0
M  END
> <NMREDATA_VERSION>
1.1

> <NMREDATA_LEVEL>
0

> <NMREDATA_SOLVENT>
CDCl3

> <NMREDATA_FORMULA>
C31H31N2O2P

> <NMREDATA_SMILES>
CC(OC(=O)[C@]1(C)N=CN([C@@]1(C)c1ccc2c(c1)cccc2)P(c1ccccc1)c1ccccc1)C

> <NMREDATA_ASSIGNMENT>
P21, 21.40, 21

> <NMREDATA_1D_31P>
Larmor=121
21.40, L=P21

$$$$
