
 OpenBabel06112616462D

 12 12  0  0  0  0  0  0  0  0999 V2000
   -1.5000   -0.1340    0.0000 C   0  0  0  0  0  0  0  0  0  0  0  0
   -1.0000   -1.0000    0.0000 O   0  0  0  0  0  0  0  0  0  0  0  0
    0.0000   -1.0000    0.0000 P   0  0  0  0  0  0  0  0  0  0  0  0
    0.0000   -2.0000    0.0000 O   0  0  0  0  0  0  0  0  0  0  0  0
    1.0000   -1.0000    0.0000 O   0  0  0  0  0  0  0  0  0  0  0  0
    1.5000   -1.8660    0.0000 C   0  0  0  0  0  0  0  0  0  0  0  0
    0.0000    0.0000    0.0000 S   0  0  0  0  0  0  0  0  0  0  0  0
    0.8660    0.5000    0.0000 C   0  0  0  0  0  0  0  0  0  0  0  0
    0.9706    1.4945    0.0000 C   0  0  0  0  0  0  0  0  0  0  0  0
    1.9487    1.7024    0.0000 C   0  0  0  0  0  0  0  0  0  0  0  0
    2.4487    0.8364    0.0000 C   0  0  0  0  0  0  0  0  0  0  0  0
    1.7796    0.0933    0.0000 S   0  0  0  0  0  0  0  0  0  0  0  0
  1  2  1  0  0  0  0
  2  3  1  0  0  0  0
  3  4  2  0  0  0  0
  3  5  1  0  0  0  0
  3  7  1  0  0  0  0
  5  6  1  0  0  0  0
  7  8  1  0  0  0  0
  8 12  1  0  0  0  0
  8  9  2  0  0  0  0
  9 10  1  0  0  0  0
 10 11  2  0  0  0  0
 11 12  1  0  0  0  0
M  END
> <NMREDATA_VERSION>
1.1

> <NMREDATA_LEVEL>
0

> <NMREDATA_SOLVENT>
CDCl3

> <NMREDATA_FORMULA>
C6H9O3PS2

> <NMREDATA_SMILES>
COP(=O)(Sc1cccs1)OC

> <NMREDATA_ASSIGNMENT>
P3, 24.50, 3

> <NMREDATA_1D_31P>
Larmor=162
24.50, L=P3

$$$$
