
 OpenBabel06112616472D

 36 41  0  0  1  0  0  0  0  0999 V2000
    3.3272    4.9533    0.0000 C    0  0  0  0  0  0  0  0  0  0  0  0
    3.5352    3.9752    0.0000 C    0  0  0  0  0  0  0  0  0  0  0  0
    2.8660    3.2321    0.0000 C    0  0  0  0  0  0  0  0  0  0  0  0
    3.3660    2.3660    0.0000 N    0  0  0  0  0  0  0  0  0  0  0  0
    4.3442    2.5739    0.0000 C    0  0  0  0  0  0  0  0  0  0  0  0
    5.1532    1.9862    0.0000 C    0  0  0  0  0  0  0  0  0  0  0  0
    6.0667    2.3929    0.0000 C    0  0  0  0  0  0  0  0  0  0  0  0
    6.1713    3.3874    0.0000 C    0  0  0  0  0  0  0  0  0  0  0  0
    7.0848    3.7941    0.0000 Cl   0  0  0  0  0  0  0  0  0  0  0  0
    5.3622    3.9752    0.0000 C    0  0  0  0  0  0  0  0  0  0  0  0
    4.4487    3.5685    0.0000 C    0  0  0  0  0  0  0  0  0  0  0  0
    2.8660    1.5000    0.0000 C    0  0  0  0  0  0  0  0  0  0  0  0
    3.3660    0.6340    0.0000 O    0  0  0  0  0  0  0  0  0  0  0  0
    1.8660    1.5000    0.0000 C    0  0  3  0  0  0  0  0  0  0  0  0
    1.8660    0.5000    0.0000 C    0  0  0  0  0  0  0  0  0  0  0  0
    1.0000    1.0000    0.0000 C    0  0  0  0  0  0  0  0  0  0  0  0
    1.0000    0.0000    0.0000 P    0  0  0  0  0  0  0  0  0  0  0  0
    2.0000    0.0000    0.0000 O    0  0  0  0  0  0  0  0  0  0  0  0
    1.0000   -1.0000    0.0000 C    0  0  0  0  0  0  0  0  0  0  0  0
    0.1340   -1.5000    0.0000 C    0  0  0  0  0  0  0  0  0  0  0  0
    0.1340   -2.5000    0.0000 C    0  0  0  0  0  0  0  0  0  0  0  0
    1.0000   -3.0000    0.0000 C    0  0  0  0  0  0  0  0  0  0  0  0
    1.8660   -2.5000    0.0000 C    0  0  0  0  0  0  0  0  0  0  0  0
    1.8660   -1.5000    0.0000 C    0  0  0  0  0  0  0  0  0  0  0  0
    0.0000    0.0000    0.0000 C    0  0  0  0  0  0  0  0  0  0  0  0
   -0.5000    0.8660    0.0000 C    0  0  0  0  0  0  0  0  0  0  0  0
   -1.5000    0.8660    0.0000 C    0  0  0  0  0  0  0  0  0  0  0  0
   -2.0000    0.0000    0.0000 C    0  0  0  0  0  0  0  0  0  0  0  0
   -1.5000   -0.8660    0.0000 C    0  0  0  0  0  0  0  0  0  0  0  0
   -0.5000   -0.8660    0.0000 C    0  0  0  0  0  0  0  0  0  0  0  0
    1.3660    2.3660    0.0000 C    0  0  0  0  0  0  0  0  0  0  0  0
    0.3660    2.3660    0.0000 C    0  0  0  0  0  0  0  0  0  0  0  0
   -0.1340    3.2321    0.0000 C    0  0  0  0  0  0  0  0  0  0  0  0
    0.3660    4.0981    0.0000 C    0  0  0  0  0  0  0  0  0  0  0  0
    1.3660    4.0981    0.0000 C    0  0  0  0  0  0  0  0  0  0  0  0
    1.8660    3.2321    0.0000 C    0  0  0  0  0  0  0  0  0  0  0  0
  1  2  1  0  0  0  0
  2 11  1  0  0  0  0
  2  3  2  0  0  0  0
  3 36  1  0  0  0  0
  3  4  1  0  0  0  0
  4  5  1  0  0  0  0
  4 12  1  0  0  0  0
  5 11  2  0  0  0  0
  5  6  1  0  0  0  0
  6  7  2  0  0  0  0
  7  8  1  0  0  0  0
  8  9  1  0  0  0  0
  8 10  2  0  0  0  0
 10 11  1  0  0  0  0
 12 13  2  0  0  0  0
 12 14  1  0  0  0  0
 14 15  1  0  0  0  0
 14 16  1  0  0  0  0
 14 31  1  0  0  0  0
 16 17  1  0  0  0  0
 17 18  2  0  0  0  0
 17 19  1  0  0  0  0
 17 25  1  0  0  0  0
 19 24  2  0  0  0  0
 19 20  1  0  0  0  0
 20 21  2  0  0  0  0
 21 22  1  0  0  0  0
 22 23  2  0  0  0  0
 23 24  1  0  0  0  0
 25 30  2  0  0  0  0
 25 26  1  0  0  0  0
 26 27  2  0  0  0  0
 27 28  1  0  0  0  0
 28 29  2  0  0  0  0
 29 30  1  0  0  0  0
 31 36  2  0  0  0  0
 31 32  1  0  0  0  0
 32 33  2  0  0  0  0
 33 34  1  0  0  0  0
 34 35  2  0  0  0  0
 35 36  1  0  0  0  0
M  END
> <NMREDATA_VERSION>
1.1

> <NMREDATA_LEVEL>
0

> <NMREDATA_SOLVENT>
CDCl3

> <NMREDATA_FORMULA>
C31H25ClNO2P

> <NMREDATA_SMILES>
Clc1ccc2c(c1)c(C)c1-c3ccccc3C(C(=O)n21)(C)CP(=O)(c1ccccc1)c1ccccc1

> <NMREDATA_ASSIGNMENT>
P17, 21.60, 17

> <NMREDATA_1D_31P>
Larmor=162
21.60, L=P17

$$$$
