
 OpenBabel06112616422D

 38 43  0  0  0  0  0  0  0  0999 V2000
   -2.6313    1.0984    0.0000 C    0  0  0  0  0  0  0  0  0  0  0  0
   -2.4088    0.1235    0.0000 N    0  0  0  0  0  0  0  0  0  0  0  0
   -1.4339   -0.0990    0.0000 C    0  0  0  0  0  0  0  0  0  0  0  0
   -1.0000   -1.0000    0.0000 C    0  0  0  0  0  0  0  0  0  0  0  0
    0.0000   -1.0000    0.0000 P    0  0  0  0  0  0  0  0  0  0  0  0
    0.0000   -2.0000    0.0000 O    0  0  0  0  0  0  0  0  0  0  0  0
    1.0000   -1.0000    0.0000 C    0  0  0  0  0  0  0  0  0  0  0  0
    1.5000   -0.1340    0.0000 C    0  0  0  0  0  0  0  0  0  0  0  0
    2.5000   -0.1340    0.0000 C    0  0  0  0  0  0  0  0  0  0  0  0
    3.0000   -1.0000    0.0000 C    0  0  0  0  0  0  0  0  0  0  0  0
    2.5000   -1.8660    0.0000 C    0  0  0  0  0  0  0  0  0  0  0  0
    1.5000   -1.8660    0.0000 C    0  0  0  0  0  0  0  0  0  0  0  0
    0.0000    0.0000    0.0000 C    0  0  0  0  0  0  0  0  0  0  0  0
   -0.8660    0.5000    0.0000 C    0  0  0  0  0  0  0  0  0  0  0  0
   -0.8660    1.5000    0.0000 C    0  0  0  0  0  0  0  0  0  0  0  0
    0.0000    2.0000    0.0000 C    0  0  0  0  0  0  0  0  0  0  0  0
    0.8660    1.5000    0.0000 C    0  0  0  0  0  0  0  0  0  0  0  0
    0.8660    0.5000    0.0000 C    0  0  0  0  0  0  0  0  0  0  0  0
   -1.4339   -1.9010    0.0000 C    0  0  0  0  0  0  0  0  0  0  0  0
   -0.8104   -2.6828    0.0000 C    0  0  0  0  0  0  0  0  0  0  0  0
   -1.1757   -3.6137    0.0000 C    0  0  0  0  0  0  0  0  0  0  0  0
   -0.5522   -4.3955    0.0000 C    0  0  0  0  0  0  0  0  0  0  0  0
    0.4366   -4.2465    0.0000 C    0  0  0  0  0  0  0  0  0  0  0  0
    1.0601   -5.0283    0.0000 Cl   0  0  0  0  0  0  0  0  0  0  0  0
    0.8019   -3.3156    0.0000 C    0  0  0  0  0  0  0  0  0  0  0  0
    0.1784   -2.5338    0.0000 C    0  0  0  0  0  0  0  0  0  0  0  0
   -2.4088   -2.1235    0.0000 C    0  0  0  0  0  0  0  0  0  0  0  0
   -3.1906   -1.5000    0.0000 C    0  0  0  0  0  0  0  0  0  0  0  0
   -4.0252   -2.0509    0.0000 N    0  0  0  0  0  0  0  0  0  0  0  0
   -4.9615   -1.6995    0.0000 C    0  0  0  0  0  0  0  0  0  0  0  0
   -3.7592   -3.0149    0.0000 C    0  0  0  0  0  0  0  0  0  0  0  0
   -4.2975   -3.8576    0.0000 C    0  0  0  0  0  0  0  0  0  0  0  0
   -3.8369   -4.7452    0.0000 C    0  0  0  0  0  0  0  0  0  0  0  0
   -2.8379   -4.7900    0.0000 C    0  0  0  0  0  0  0  0  0  0  0  0
   -2.2995   -3.9473    0.0000 C    0  0  0  0  0  0  0  0  0  0  0  0
   -2.7602   -3.0597    0.0000 C    0  0  0  0  0  0  0  0  0  0  0  0
   -3.1906   -0.5000    0.0000 C    0  0  0  0  0  0  0  0  0  0  0  0
   -4.0916   -0.0661    0.0000 O    0  0  0  0  0  0  0  0  0  0  0  0
  1  2  1  0  0  0  0
  2 37  1  0  0  0  0
  2  3  1  0  0  0  0
  3  4  1  0  0  0  0
  4  5  1  0  0  0  0
  4 19  2  0  0  0  0
  5  6  2  0  0  0  0
  5  7  1  0  0  0  0
  5 13  1  0  0  0  0
  7 12  2  0  0  0  0
  7  8  1  0  0  0  0
  8  9  2  0  0  0  0
  9 10  1  0  0  0  0
 10 11  2  0  0  0  0
 11 12  1  0  0  0  0
 13 18  2  0  0  0  0
 13 14  1  0  0  0  0
 14 15  2  0  0  0  0
 15 16  1  0  0  0  0
 16 17  2  0  0  0  0
 17 18  1  0  0  0  0
 19 20  1  0  0  0  0
 19 27  1  0  0  0  0
 20 26  2  0  0  0  0
 20 21  1  0  0  0  0
 21 22  2  0  0  0  0
 22 23  1  0  0  0  0
 23 24  1  0  0  0  0
 23 25  2  0  0  0  0
 25 26  1  0  0  0  0
 27 36  1  0  0  0  0
 27 28  2  0  0  0  0
 28 29  1  0  0  0  0
 28 37  1  0  0  0  0
 29 30  1  0  0  0  0
 29 31  1  0  0  0  0
 31 36  2  0  0  0  0
 31 32  1  0  0  0  0
 32 33  2  0  0  0  0
 33 34  1  0  0  0  0
 34 35  2  0  0  0  0
 35 36  1  0  0  0  0
 37 38  2  0  0  0  0
M  END
> <NMREDATA_VERSION>
1.1

> <NMREDATA_LEVEL>
0

> <NMREDATA_SOLVENT>
CDCl3

> <NMREDATA_FORMULA>
C32H26ClN2O2P

> <NMREDATA_SMILES>
Clc1ccc(cc1)C1=C(CN(C(=O)c2c1c1ccccc1n2C)C)P(=O)(c1ccccc1)c1ccccc1

> <NMREDATA_ASSIGNMENT>
P5, 27.90, 5

> <NMREDATA_1D_31P>
Larmor=162
27.90, L=P5

$$$$
