
 OpenBabel06112616452D

 21 22  0  0  0  0  0  0  0  0999 V2000
   -0.8660    2.5000    0.0000 C   0  0  0  0  0  0  0  0  0  0  0  0
   -0.8660    1.5000    0.0000 O   0  0  0  0  0  0  0  0  0  0  0  0
    0.0000    1.0000    0.0000 C   0  0  0  0  0  0  0  0  0  0  0  0
    0.8660    1.5000    0.0000 C   0  0  0  0  0  0  0  0  0  0  0  0
    1.7321    1.0000    0.0000 C   0  0  0  0  0  0  0  0  0  0  0  0
    1.7321    0.0000    0.0000 C   0  0  0  0  0  0  0  0  0  0  0  0
    2.5981   -0.5000    0.0000 C   0  0  0  0  0  0  0  0  0  0  0  0
    2.5981   -1.5000    0.0000 O   0  0  0  0  0  0  0  0  0  0  0  0
    3.4641    0.0000    0.0000 C   0  0  0  0  0  0  0  0  0  0  0  0
    4.3301   -0.5000    0.0000 S   0  0  0  0  0  0  0  0  0  0  0  0
    5.1962    0.0000    0.0000 P   0  0  0  0  0  0  0  0  0  0  0  0
    5.0656    0.9914    0.0000 S   0  0  0  0  0  0  0  0  0  0  0  0
    5.9033    0.7071    0.0000 O   0  0  0  0  0  0  0  0  0  0  0  0
    6.8692    0.4483    0.0000 C   0  0  0  0  0  0  0  0  0  0  0  0
    7.1280   -0.5176    0.0000 C   0  0  0  0  0  0  0  0  0  0  0  0
    7.8351   -1.2247    0.0000 C   0  0  0  0  0  0  0  0  0  0  0  0
    8.0939   -0.2588    0.0000 C   0  0  0  0  0  0  0  0  0  0  0  0
    6.4209   -1.2247    0.0000 C   0  0  0  0  0  0  0  0  0  0  0  0
    5.4550   -0.9659    0.0000 O   0  0  0  0  0  0  0  0  0  0  0  0
    0.8660   -0.5000    0.0000 C   0  0  0  0  0  0  0  0  0  0  0  0
    0.0000    0.0000    0.0000 C   0  0  0  0  0  0  0  0  0  0  0  0
  1  2  1  0  0  0  0
  2  3  1  0  0  0  0
  3 21  2  0  0  0  0
  3  4  1  0  0  0  0
  4  5  2  0  0  0  0
  5  6  1  0  0  0  0
  6  7  1  0  0  0  0
  6 20  2  0  0  0  0
  7  8  2  0  0  0  0
  7  9  1  0  0  0  0
  9 10  1  0  0  0  0
 10 11  1  0  0  0  0
 11 19  1  0  0  0  0
 11 12  2  0  0  0  0
 11 13  1  0  0  0  0
 13 14  1  0  0  0  0
 14 15  1  0  0  0  0
 15 16  1  0  0  0  0
 15 17  1  0  0  0  0
 15 18  1  0  0  0  0
 18 19  1  0  0  0  0
 20 21  1  0  0  0  0
M  END
> <NMREDATA_VERSION>
1.1

> <NMREDATA_LEVEL>
0

> <NMREDATA_SOLVENT>
CDCl3

> <NMREDATA_FORMULA>
C14H19O4PS2

> <NMREDATA_SMILES>
COc1ccc(cc1)C(=O)CSP1(=S)OCC(CO1)(C)C

> <NMREDATA_ASSIGNMENT>
P11, 87.93, 11

> <NMREDATA_1D_31P>
Larmor=162
87.93, L=P11

$$$$
