
 OpenBabel06112616472D

 31 35  0  0  0  0  0  0  0  0999 V2000
   -2.8090   -3.3550    0.0000 C   0  0  0  0  0  0  0  0  0  0  0  0
   -2.3706   -2.4562    0.0000 C   0  0  0  0  0  0  0  0  0  0  0  0
   -1.3731   -2.3864    0.0000 C   0  0  0  0  0  0  0  0  0  0  0  0
   -0.9347   -1.4876    0.0000 C   0  0  0  0  0  0  0  0  0  0  0  0
    0.0629   -1.4179    0.0000 N   0  0  0  0  0  0  0  0  0  0  0  0
    0.6221   -2.2469    0.0000 C   0  0  0  0  0  0  0  0  0  0  0  0
    0.1837   -3.1457    0.0000 C   0  0  0  0  0  0  0  0  0  0  0  0
   -0.8139   -3.2154    0.0000 C   0  0  0  0  0  0  0  0  0  0  0  0
   -1.2522   -4.1142    0.0000 C   0  0  0  0  0  0  0  0  0  0  0  0
    0.5012   -0.5191    0.0000 P   0  0  0  0  0  0  0  0  0  0  0  0
    1.2189   -0.5945    0.0000 O   0  0  0  0  0  0  0  0  0  0  0  0
    1.8171   -0.1910    0.0000 C   0  0  0  0  0  0  0  0  0  0  0  0
    2.6831   -0.6910    0.0000 C   0  0  0  0  0  0  0  0  0  0  0  0
    2.6831   -1.6910    0.0000 C   0  0  0  0  0  0  0  0  0  0  0  0
    3.5491   -0.1910    0.0000 C   0  0  0  0  0  0  0  0  0  0  0  0
    3.5491    0.8090    0.0000 C   0  0  0  0  0  0  0  0  0  0  0  0
    2.6831    1.3090    0.0000 C   0  0  0  0  0  0  0  0  0  0  0  0
    1.8171    0.8090    0.0000 C   0  0  0  0  0  0  0  0  0  0  0  0
    1.0739    1.4781    0.0000 C   0  0  0  0  0  0  0  0  0  0  0  0
    1.4807    2.3917    0.0000 C   0  0  0  0  0  0  0  0  0  0  0  0
    2.4752    2.2872    0.0000 C   0  0  0  0  0  0  0  0  0  0  0  0
    1.1243    2.1980    0.0000 C   0  0  0  0  0  0  0  0  0  0  0  0
    0.4552    2.4683    0.0000 C   0  0  0  0  0  0  0  0  0  0  0  0
   -0.0086    1.9155    0.0000 C   0  0  0  0  0  0  0  0  0  0  0  0
   -0.5315    1.8152    0.0000 C   0  0  0  0  0  0  0  0  0  0  0  0
   -0.7791    1.3438    0.0000 C   0  0  0  0  0  0  0  0  0  0  0  0
   -0.5650    0.8563    0.0000 C   0  0  0  0  0  0  0  0  0  0  0  0
   -1.2154    0.0967    0.0000 C   0  0  0  0  0  0  0  0  0  0  0  0
   -0.0503    0.7198    0.0000 C   0  0  0  0  0  0  0  0  0  0  0  0
    0.3738    1.3036    0.0000 C   0  0  0  0  0  0  0  0  0  0  0  0
    0.0000    0.0000    0.0000 O   0  0  0  0  0  0  0  0  0  0  0  0
  1  2  1  0  0  0  0
  2  3  1  0  0  0  0
  3  4  1  0  0  0  0
  4  5  1  0  0  0  0
  5  6  1  0  0  0  0
  5 10  1  0  0  0  0
  6  7  1  0  0  0  0
  7  8  1  0  0  0  0
  8  9  1  0  0  0  0
 10 31  1  0  0  0  0
 10 11  1  0  0  0  0
 11 12  1  0  0  0  0
 12 18  2  0  0  0  0
 12 13  1  0  0  0  0
 13 14  1  0  0  0  0
 13 15  2  0  0  0  0
 15 16  1  0  0  0  0
 16 17  2  0  0  0  0
 17 21  1  0  0  0  0
 17 18  1  0  0  0  0
 18 19  1  0  0  0  0
 19 30  1  0  0  0  0
 19 20  1  0  0  0  0
 19 22  1  0  0  0  0
 20 21  1  0  0  0  0
 22 23  1  0  0  0  0
 23 24  1  0  0  0  0
 24 30  2  0  0  0  0
 24 25  1  0  0  0  0
 25 26  2  0  0  0  0
 26 27  1  0  0  0  0
 27 28  1  0  0  0  0
 27 29  2  0  0  0  0
 29 30  1  0  0  0  0
 29 31  1  0  0  0  0
M  END
> <NMREDATA_VERSION>
1.1

> <NMREDATA_LEVEL>
0

> <NMREDATA_SOLVENT>
CDCl3

> <NMREDATA_FORMULA>
C27H36NO2P

> <NMREDATA_SMILES>
CCCCN(P1Oc2c(C)ccc3c2C2(c4c(O1)c(C)ccc4CC2)CC3)CCCC

> <NMREDATA_ASSIGNMENT>
P10, 124.56, 10

> <NMREDATA_1D_31P>
Larmor=202
124.56, L=P10

$$$$
