
 OpenBabel06112616482D

 22 23  0  0  1  0  0  0  0  0999 V2000
   -5.8829   -0.7497    0.0000 C   0  0  0  0  0  0  0  0  0  0  0  0
   -4.9319   -1.0587    0.0000 O   0  0  0  0  0  0  0  0  0  0  0  0
   -4.1887   -0.3896    0.0000 C   0  0  0  0  0  0  0  0  0  0  0  0
   -4.3966    0.5886    0.0000 C   0  0  0  0  0  0  0  0  0  0  0  0
   -5.3477    0.8976    0.0000 O   0  0  0  0  0  0  0  0  0  0  0  0
   -3.6535    1.2577    0.0000 C   0  0  0  0  0  0  0  0  0  0  0  0
   -2.7024    0.9487    0.0000 C   0  0  0  0  0  0  0  0  0  0  0  0
   -1.8364    1.4487    0.0000 C   0  0  0  0  0  0  0  0  0  0  0  0
   -1.0933    0.7796    0.0000 O   0  0  0  0  0  0  0  0  0  0  0  0
   -1.5000   -0.1340    0.0000 C   0  0  3  0  0  0  0  0  0  0  0  0
   -1.0000   -1.0000    0.0000 C   0  0  0  0  0  0  0  0  0  0  0  0
    0.0000   -1.0000    0.0000 P   0  0  0  0  0  0  0  0  0  0  0  0
    0.0000   -2.0000    0.0000 O   0  0  0  0  0  0  0  0  0  0  0  0
   -0.8660   -2.5000    0.0000 C   0  0  0  0  0  0  0  0  0  0  0  0
   -0.8660   -3.5000    0.0000 C   0  0  0  0  0  0  0  0  0  0  0  0
    1.0000   -1.0000    0.0000 O   0  0  0  0  0  0  0  0  0  0  0  0
    1.5000   -1.8660    0.0000 C   0  0  0  0  0  0  0  0  0  0  0  0
    1.0000   -2.7321    0.0000 C   0  0  0  0  0  0  0  0  0  0  0  0
    0.0000    0.0000    0.0000 O   0  0  0  0  0  0  0  0  0  0  0  0
   -2.4945   -0.0294    0.0000 C   0  0  0  0  0  0  0  0  0  0  0  0
   -3.2377   -0.6986    0.0000 C   0  0  0  0  0  0  0  0  0  0  0  0
   -1.7319    2.4432    0.0000 O   0  0  0  0  0  0  0  0  0  0  0  0
  1  2  1  0  0  0  0
  2  3  1  0  0  0  0
  3 21  2  0  0  0  0
  3  4  1  0  0  0  0
  4  5  1  0  0  0  0
  4  6  2  0  0  0  0
  6  7  1  0  0  0  0
  7 20  2  0  0  0  0
  7  8  1  0  0  0  0
  8  9  1  0  0  0  0
  8 22  2  0  0  0  0
  9 10  1  0  0  0  0
 10 11  1  0  0  0  0
 10 20  1  0  0  0  0
 11 12  1  0  0  0  0
 12 13  1  0  0  0  0
 12 16  1  0  0  0  0
 12 19  2  0  0  0  0
 13 14  1  0  0  0  0
 14 15  1  0  0  0  0
 16 17  1  0  0  0  0
 17 18  1  0  0  0  0
 20 21  1  0  0  0  0
M  END
> <NMREDATA_VERSION>
1.1

> <NMREDATA_LEVEL>
0

> <NMREDATA_SOLVENT>
CDCl3

> <NMREDATA_FORMULA>
C14H19O7P

> <NMREDATA_SMILES>
CCOP(=O)(CC1OC(=O)c2c1cc(OC)c(c2)O)OCC

> <NMREDATA_ASSIGNMENT>
P12, 24.87, 12

> <NMREDATA_1D_31P>
Larmor=202
24.87, L=P12

$$$$
