
 OpenBabel06112616442D

 33 36  0  0  0  0  0  0  0  0999 V2000
   -3.6923   -3.6923    0.0000 C   0  0  0  0  0  0  0  0  0  0  0  0
   -2.7692   -3.6923    0.0000 C   0  0  0  0  0  0  0  0  0  0  0  0
   -2.3077   -2.8929    0.0000 C   0  0  0  0  0  0  0  0  0  0  0  0
   -1.3846   -2.8929    0.0000 C   0  0  0  0  0  0  0  0  0  0  0  0
   -0.9231   -3.6923    0.0000 C   0  0  0  0  0  0  0  0  0  0  0  0
    0.0000   -3.6923    0.0000 P   0  0  0  0  0  0  0  0  0  0  0  0
    0.0000   -4.6154    0.0000 O   0  0  0  0  0  0  0  0  0  0  0  0
    0.9231   -3.6923    0.0000 C   0  0  0  0  0  0  0  0  0  0  0  0
    1.3846   -2.8929    0.0000 C   0  0  0  0  0  0  0  0  0  0  0  0
    2.3077   -2.8929    0.0000 C   0  0  0  0  0  0  0  0  0  0  0  0
    2.7692   -3.6923    0.0000 C   0  0  0  0  0  0  0  0  0  0  0  0
    3.6923   -3.6923    0.0000 C   0  0  0  0  0  0  0  0  0  0  0  0
    2.3077   -4.4917    0.0000 C   0  0  0  0  0  0  0  0  0  0  0  0
    1.3846   -4.4917    0.0000 C   0  0  0  0  0  0  0  0  0  0  0  0
    0.0000    0.0000    0.0000 C   0  0  0  0  0  0  0  0  0  0  0  0
    0.7994    0.4615    0.0000 C   0  0  0  0  0  0  0  0  0  0  0  0
    0.7994    1.3846    0.0000 C   0  0  0  0  0  0  0  0  0  0  0  0
    0.0000    1.8462    0.0000 C   0  0  0  0  0  0  0  0  0  0  0  0
   -0.7994    1.3846    0.0000 C   0  0  0  0  0  0  0  0  0  0  0  0
   -0.7994    0.4615    0.0000 C   0  0  0  0  0  0  0  0  0  0  0  0
   -1.5988    0.0000    0.0000 C   0  0  0  0  0  0  0  0  0  0  0  0
   -1.5988   -0.9231    0.0000 C   0  0  0  0  0  0  0  0  0  0  0  0
   -2.3982   -1.3846    0.0000 C   0  0  0  0  0  0  0  0  0  0  0  0
   -3.1976   -0.9231    0.0000 C   0  0  0  0  0  0  0  0  0  0  0  0
   -3.9970   -1.3846    0.0000 C   0  0  0  0  0  0  0  0  0  0  0  0
   -3.1976    0.0000    0.0000 C   0  0  0  0  0  0  0  0  0  0  0  0
   -3.9970    0.4615    0.0000 C   0  0  0  0  0  0  0  0  0  0  0  0
   -4.7964    0.9231    0.0000 N   0  0  0  0  0  0  0  0  0  0  0  0
   -2.3982    0.4615    0.0000 C   0  0  0  0  0  0  0  0  0  0  0  0
   -2.3982    1.3846    0.0000 C   0  0  0  0  0  0  0  0  0  0  0  0
   -2.3982    2.3077    0.0000 N   0  0  0  0  0  0  0  0  0  0  0  0
   -1.3846   -4.4917    0.0000 C   0  0  0  0  0  0  0  0  0  0  0  0
   -2.3077   -4.4917    0.0000 C   0  0  0  0  0  0  0  0  0  0  0  0
  1  2  1  0  0  0  0
  2 33  2  0  0  0  0
  2  3  1  0  0  0  0
  3  4  2  0  0  0  0
  4  5  1  0  0  0  0
  5  6  1  0  0  0  0
  5 32  2  0  0  0  0
  6  7  2  0  0  0  0
  6  8  1  0  0  0  0
  6 15  1  0  0  0  0
  8 14  2  0  0  0  0
  8  9  1  0  0  0  0
  9 10  2  0  0  0  0
 10 11  1  0  0  0  0
 11 12  1  0  0  0  0
 11 13  2  0  0  0  0
 13 14  1  0  0  0  0
 15 20  2  0  0  0  0
 15 16  1  0  0  0  0
 16 17  2  0  0  0  0
 17 18  1  0  0  0  0
 18 19  2  0  0  0  0
 19 20  1  0  0  0  0
 20 21  1  0  0  0  0
 21 29  2  0  0  0  0
 21 22  1  0  0  0  0
 22 23  2  0  0  0  0
 23 24  1  0  0  0  0
 24 25  1  0  0  0  0
 24 26  2  0  0  0  0
 26 27  1  0  0  0  0
 26 29  1  0  0  0  0
 27 28  3  0  0  0  0
 29 30  1  0  0  0  0
 30 31  3  0  0  0  0
 32 33  1  0  0  0  0
M  END
> <NMREDATA_VERSION>
1.1

> <NMREDATA_LEVEL>
0

> <NMREDATA_SOLVENT>
CDCl3

> <NMREDATA_FORMULA>
C29H23N2OP

> <NMREDATA_SMILES>
N#Cc1c(C#N)c(C)ccc1c1ccccc1P(=O)(c1ccc(cc1)C)c1ccc(cc1)C

> <NMREDATA_ASSIGNMENT>
P6, 26.90, 6

> <NMREDATA_1D_31P>
Larmor=200
26.90, L=P6

$$$$
