
 OpenBabel06112616442D

 13 14  0  0  0  0  0  0  0  0999 V2000
    0.8660   -0.5000    0.0000 C   0  0  0  0  0  0  0  0  0  0  0  0
    1.8660   -0.5000    0.0000 C   0  0  0  0  0  0  0  0  0  0  0  0
    1.3660    0.3660    0.0000 C   0  0  0  0  0  0  0  0  0  0  0  0
    0.8660   -1.5000    0.0000 C   0  0  0  0  0  0  0  0  0  0  0  0
    0.0000   -2.0000    0.0000 O   0  0  0  0  0  0  0  0  0  0  0  0
   -0.8660   -1.5000    0.0000 P   0  0  0  0  0  0  0  0  0  0  0  0
   -1.7321   -2.0000    0.0000 N   0  0  0  0  0  0  0  0  0  0  0  0
   -1.8366   -2.9945    0.0000 C   0  0  0  0  0  0  0  0  0  0  0  0
   -2.8147   -3.2024    0.0000 C   0  0  0  0  0  0  0  0  0  0  0  0
   -3.3147   -2.3364    0.0000 C   0  0  0  0  0  0  0  0  0  0  0  0
   -2.6456   -1.5933    0.0000 C   0  0  0  0  0  0  0  0  0  0  0  0
   -0.8660   -0.5000    0.0000 O   0  0  0  0  0  0  0  0  0  0  0  0
    0.0000    0.0000    0.0000 C   0  0  0  0  0  0  0  0  0  0  0  0
  1 13  1  0  0  0  0
  1  2  1  0  0  0  0
  1  3  1  0  0  0  0
  1  4  1  0  0  0  0
  4  5  1  0  0  0  0
  5  6  1  0  0  0  0
  6  7  1  0  0  0  0
  6 12  1  0  0  0  0
  7 11  1  0  0  0  0
  7  8  1  0  0  0  0
  8  9  1  0  0  0  0
  9 10  1  0  0  0  0
 10 11  1  0  0  0  0
 12 13  1  0  0  0  0
M  END
> <NMREDATA_VERSION>
1.1

> <NMREDATA_LEVEL>
0

> <NMREDATA_SOLVENT>
CDCl3

> <NMREDATA_FORMULA>
C9H18NO2P

> <NMREDATA_SMILES>
CC1(C)COP(OC1)N1CCCC1

> <NMREDATA_ASSIGNMENT>
P6, 138.90, 6

> <NMREDATA_1D_31P>
Larmor=162
138.90, L=P6

$$$$
