
 OpenBabel06112616452D

 28 30  0  0  1  0  0  0  0  0999 V2000
    1.7321   -2.0000    0.0000 C   0  0  0  0  0  0  0  0  0  0  0  0
    0.8660   -2.5000    0.0000 C   0  0  0  0  0  0  0  0  0  0  0  0
    0.0000   -2.0000    0.0000 O   0  0  0  0  0  0  0  0  0  0  0  0
    0.0000   -1.0000    0.0000 P   0  0  0  0  0  0  0  0  0  0  0  0
    1.0000   -1.0000    0.0000 O   0  0  0  0  0  0  0  0  0  0  0  0
   -1.0000   -1.0000    0.0000 C   0  0  0  0  0  0  0  0  0  0  0  0
   -1.5000   -1.8660    0.0000 C   0  0  3  0  0  0  0  0  0  0  0  0
   -1.0000   -2.7321    0.0000 C   0  0  0  0  0  0  0  0  0  0  0  0
   -1.5000   -3.5981    0.0000 C   0  0  0  0  0  0  0  0  0  0  0  0
   -2.5000   -3.5981    0.0000 C   0  0  0  0  0  0  0  0  0  0  0  0
   -3.0000   -2.7321    0.0000 N   0  0  0  0  0  0  0  0  0  0  0  0
   -3.9781   -2.5241    0.0000 C   0  0  0  0  0  0  0  0  0  0  0  0
   -4.7213   -3.1933    0.0000 C   0  0  0  0  0  0  0  0  0  0  0  0
   -5.6723   -2.8843    0.0000 O   0  0  0  0  0  0  0  0  0  0  0  0
   -4.5134   -4.1714    0.0000 C   0  0  0  0  0  0  0  0  0  0  0  0
   -3.5623   -4.4804    0.0000 C   0  0  0  0  0  0  0  0  0  0  0  0
   -3.3544   -5.4586    0.0000 C   0  0  0  0  0  0  0  0  0  0  0  0
   -4.0976   -6.1277    0.0000 C   0  0  0  0  0  0  0  0  0  0  0  0
   -5.0486   -5.8187    0.0000 C   0  0  0  0  0  0  0  0  0  0  0  0
   -5.7918   -6.4878    0.0000 O   0  0  0  0  0  0  0  0  0  0  0  0
   -6.7428   -6.1788    0.0000 C   0  0  0  0  0  0  0  0  0  0  0  0
   -5.2565   -4.8405    0.0000 C   0  0  0  0  0  0  0  0  0  0  0  0
   -4.0827   -1.5296    0.0000 C   0  0  0  0  0  0  0  0  0  0  0  0
   -3.1691   -1.1229    0.0000 C   0  0  0  0  0  0  0  0  0  0  0  0
   -2.5000   -1.8660    0.0000 C   0  0  0  0  0  0  0  0  0  0  0  0
    0.0000    0.0000    0.0000 O   0  0  0  0  0  0  0  0  0  0  0  0
    0.8660    0.5000    0.0000 C   0  0  0  0  0  0  0  0  0  0  0  0
    1.7321    0.0000    0.0000 C   0  0  0  0  0  0  0  0  0  0  0  0
  1  2  1  0  0  0  0
  2  3  1  0  0  0  0
  3  4  1  0  0  0  0
  4  5  2  0  0  0  0
  4  6  1  0  0  0  0
  4 26  1  0  0  0  0
  6  7  1  0  0  0  0
  7 25  1  0  0  0  0
  7  8  1  0  0  0  0
  8  9  1  0  0  0  0
  9 10  1  0  0  0  0
 10 11  1  0  0  0  0
 11 25  1  0  0  0  0
 11 12  1  0  0  0  0
 12 13  1  0  0  0  0
 12 23  2  0  0  0  0
 13 14  2  0  0  0  0
 13 15  1  0  0  0  0
 15 22  2  0  0  0  0
 15 16  1  0  0  0  0
 16 17  2  0  0  0  0
 17 18  1  0  0  0  0
 18 19  2  0  0  0  0
 19 20  1  0  0  0  0
 19 22  1  0  0  0  0
 20 21  1  0  0  0  0
 23 24  1  0  0  0  0
 24 25  2  0  0  0  0
 26 27  1  0  0  0  0
 27 28  1  0  0  0  0
M  END
> <NMREDATA_VERSION>
1.1

> <NMREDATA_LEVEL>
0

> <NMREDATA_SOLVENT>
CDCl3

> <NMREDATA_FORMULA>
C21H28NO5P

> <NMREDATA_SMILES>
CCOP(=O)(CC1CCCn2c1ccc2C(=O)c1cccc(c1)OC)OCC

> <NMREDATA_ASSIGNMENT>
P4, 29.40, 4

> <NMREDATA_1D_31P>
Larmor=162
29.40, L=P4

$$$$
