
 OpenBabel06112616452D

 33 37  0  0  0  0  0  0  0  0999 V2000
   -3.8947   -1.9474    0.0000 C   0  0  0  0  0  0  0  0  0  0  0  0
   -2.9211   -1.9474    0.0000 C   0  0  0  0  0  0  0  0  0  0  0  0
   -2.4342   -1.1041    0.0000 C   0  0  0  0  0  0  0  0  0  0  0  0
   -1.4605   -1.1041    0.0000 C   0  0  0  0  0  0  0  0  0  0  0  0
   -0.9737   -1.9474    0.0000 C   0  0  0  0  0  0  0  0  0  0  0  0
    0.0000   -1.9474    0.0000 P   0  0  0  0  0  0  0  0  0  0  0  0
    0.0000   -2.9211    0.0000 O   0  0  0  0  0  0  0  0  0  0  0  0
    0.9737   -1.9474    0.0000 C   0  0  0  0  0  0  0  0  0  0  0  0
    1.4605   -1.1041    0.0000 C   0  0  0  0  0  0  0  0  0  0  0  0
    2.4342   -1.1041    0.0000 C   0  0  0  0  0  0  0  0  0  0  0  0
    2.9211   -1.9474    0.0000 C   0  0  0  0  0  0  0  0  0  0  0  0
    3.8947   -1.9474    0.0000 C   0  0  0  0  0  0  0  0  0  0  0  0
    2.4342   -2.7906    0.0000 C   0  0  0  0  0  0  0  0  0  0  0  0
    1.4605   -2.7906    0.0000 C   0  0  0  0  0  0  0  0  0  0  0  0
    0.0000    0.0000    0.0000 N   0  0  0  0  0  0  0  0  0  0  0  0
    0.8432    0.4868    0.0000 C   0  0  0  0  0  0  0  0  0  0  0  0
    0.8432    1.4605    0.0000 C   0  0  0  0  0  0  0  0  0  0  0  0
    1.6865    1.9474    0.0000 C   0  0  0  0  0  0  0  0  0  0  0  0
    2.5297    1.4605    0.0000 C   0  0  0  0  0  0  0  0  0  0  0  0
    2.5297    0.4868    0.0000 C   0  0  0  0  0  0  0  0  0  0  0  0
    1.6865    0.0000    0.0000 C   0  0  0  0  0  0  0  0  0  0  0  0
   -0.8432    0.4868    0.0000 C   0  0  0  0  0  0  0  0  0  0  0  0
   -1.6865    0.0000    0.0000 C   0  0  0  0  0  0  0  0  0  0  0  0
   -2.5297    0.4868    0.0000 C   0  0  0  0  0  0  0  0  0  0  0  0
   -2.5297    1.4605    0.0000 C   0  0  0  0  0  0  0  0  0  0  0  0
   -1.6865    1.9474    0.0000 C   0  0  0  0  0  0  0  0  0  0  0  0
   -1.6865    2.9211    0.0000 C   0  0  0  0  0  0  0  0  0  0  0  0
   -0.8432    3.4079    0.0000 C   0  0  0  0  0  0  0  0  0  0  0  0
    0.0000    2.9211    0.0000 C   0  0  0  0  0  0  0  0  0  0  0  0
    0.0000    1.9474    0.0000 N   0  0  0  0  0  0  0  0  0  0  0  0
   -0.8432    1.4605    0.0000 C   0  0  0  0  0  0  0  0  0  0  0  0
   -1.4605   -2.7906    0.0000 C   0  0  0  0  0  0  0  0  0  0  0  0
   -2.4342   -2.7906    0.0000 C   0  0  0  0  0  0  0  0  0  0  0  0
  1  2  1  0  0  0  0
  2 33  2  0  0  0  0
  2  3  1  0  0  0  0
  3  4  2  0  0  0  0
  4  5  1  0  0  0  0
  5  6  1  0  0  0  0
  5 32  2  0  0  0  0
  6  7  2  0  0  0  0
  6  8  1  0  0  0  0
  6 15  1  0  0  0  0
  8 14  2  0  0  0  0
  8  9  1  0  0  0  0
  9 10  2  0  0  0  0
 10 11  1  0  0  0  0
 11 12  1  0  0  0  0
 11 13  2  0  0  0  0
 13 14  1  0  0  0  0
 15 16  1  0  0  0  0
 15 22  1  0  0  0  0
 16 21  2  0  0  0  0
 16 17  1  0  0  0  0
 17 18  2  0  0  0  0
 18 19  1  0  0  0  0
 19 20  2  0  0  0  0
 20 21  1  0  0  0  0
 22 31  2  0  0  0  0
 22 23  1  0  0  0  0
 23 24  2  0  0  0  0
 24 25  1  0  0  0  0
 25 26  2  0  0  0  0
 26 31  1  0  0  0  0
 26 27  1  0  0  0  0
 27 28  2  0  0  0  0
 28 29  1  0  0  0  0
 29 30  2  0  0  0  0
 30 31  1  0  0  0  0
 32 33  1  0  0  0  0
M  END
> <NMREDATA_VERSION>
1.1

> <NMREDATA_LEVEL>
0

> <NMREDATA_SOLVENT>
CDCl3

> <NMREDATA_FORMULA>
C29H25N2OP

> <NMREDATA_SMILES>
Cc1ccc(cc1)P(=O)(N(c1cccc2c1nccc2)c1ccccc1)c1ccc(cc1)C

> <NMREDATA_ASSIGNMENT>
P6, 26.20, 6

> <NMREDATA_1D_31P>
Larmor=162
26.20, L=P6

$$$$
