
 OpenBabel06112616462D

 28 32  0  0  1  0  0  0  0  0999 V2000
    0.8395   -1.5252    0.0000 C   0  0  0  0  0  0  0  0  0  0  0  0
    0.8427   -0.4935    0.0000 C   0  0  0  0  0  0  0  0  0  0  0  0
    1.6982    0.0004    0.0000 C   0  0  0  0  0  0  0  0  0  0  0  0
    2.5918   -0.5151    0.0000 C   0  0  0  0  0  0  0  0  0  0  0  0
    1.6973    0.9658    0.0000 C   0  0  0  0  0  0  0  0  0  0  0  0
    2.5347    1.4463    0.0000 C   0  0  0  0  0  0  0  0  0  0  0  0
    2.9298    2.3272    0.0000 C   0  0  0  0  0  0  0  0  0  0  0  0
    3.8902    2.4256    0.0000 C   0  0  0  0  0  0  0  0  0  0  0  0
    4.4556    1.6430    0.0000 C   0  0  0  0  0  0  0  0  0  0  0  0
    4.0605    0.7621    0.0000 C   0  0  0  0  0  0  0  0  0  0  0  0
    3.1001    0.6637    0.0000 C   0  0  0  0  0  0  0  0  0  0  0  0
    0.8546    1.4593    0.0000 P   0  0  3  0  0  0  0  0  0  0  0  0
    1.3658    2.3322    0.0000 S   0  0  0  0  0  0  0  0  0  0  0  0
    0.0116    1.9530    0.0000 C   0  0  0  0  0  0  0  0  0  0  0  0
    0.0116    2.9408    0.0000 C   0  0  0  0  0  0  0  0  0  0  0  0
   -0.8438    3.4347    0.0000 C   0  0  0  0  0  0  0  0  0  0  0  0
   -1.6992    2.9408    0.0000 C   0  0  0  0  0  0  0  0  0  0  0  0
   -1.6992    1.9530    0.0000 C   0  0  0  0  0  0  0  0  0  0  0  0
   -0.8438    1.4591    0.0000 C   0  0  0  0  0  0  0  0  0  0  0  0
   -0.8430    0.4937    0.0000 C   0  0  0  0  0  0  0  0  0  0  0  0
   -1.6804    0.0132    0.0000 C   0  0  0  0  0  0  0  0  0  0  0  0
   -2.5613    0.4082    0.0000 C   0  0  0  0  0  0  0  0  0  0  0  0
   -3.3439   -0.1572    0.0000 C   0  0  0  0  0  0  0  0  0  0  0  0
   -4.2248    0.2378    0.0000 C   0  0  0  0  0  0  0  0  0  0  0  0
   -4.3231    1.1983    0.0000 C   0  0  0  0  0  0  0  0  0  0  0  0
   -3.5406    1.7637    0.0000 C   0  0  0  0  0  0  0  0  0  0  0  0
   -2.6596    1.3686    0.0000 C   0  0  0  0  0  0  0  0  0  0  0  0
    0.0000    0.0000    0.0000 C   0  0  3  0  0  0  0  0  0  0  0  0
  1  2  2  0  0  0  0
  2 28  1  0  0  0  0
  2  3  1  0  0  0  0
  3  4  1  0  0  0  0
  3  5  2  0  0  0  0
  5  6  1  0  0  0  0
  5 12  1  0  0  0  0
  6 11  2  0  0  0  0
  6  7  1  0  0  0  0
  7  8  2  0  0  0  0
  8  9  1  0  0  0  0
  9 10  2  0  0  0  0
 10 11  1  0  0  0  0
 12 28  1  0  0  0  0
 12 13  2  0  0  0  0
 12 14  1  0  0  0  0
 14 19  2  0  0  0  0
 14 15  1  0  0  0  0
 15 16  2  0  0  0  0
 16 17  1  0  0  0  0
 17 18  2  0  0  0  0
 18 19  1  0  0  0  0
 19 20  1  0  0  0  0
 20 21  2  0  0  0  0
 20 28  1  0  0  0  0
 21 22  1  0  0  0  0
 22 27  2  0  0  0  0
 22 23  1  0  0  0  0
 23 24  2  0  0  0  0
 24 25  1  0  0  0  0
 25 26  2  0  0  0  0
 26 27  1  0  0  0  0
M  END
> <NMREDATA_VERSION>
1.1

> <NMREDATA_LEVEL>
0

> <NMREDATA_SOLVENT>
CDCl3

> <NMREDATA_FORMULA>
C26H21PS

> <NMREDATA_SMILES>
C=C1C(=C(P2(=S)C1/C(=C/c1ccccc1)/c1c2cccc1)c1ccccc1)C

> <NMREDATA_ASSIGNMENT>
P12, 65.40, 12

> <NMREDATA_1D_31P>
Larmor=121MHz
65.40, L=P12

$$$$
