
 OpenBabel06112616472D

 33 37  0  0  1  0  0  0  0  0999 V2000
   -1.0065   -1.0065    0.0000 C   0  0  1  0  0  0  0  0  0  0  0  0
    0.0000   -1.0065    0.0000 P   0  0  0  0  0  0  0  0  0  0  0  0
    0.0000   -2.0131    0.0000 O   0  0  0  0  0  0  0  0  0  0  0  0
    0.8717   -2.5164    0.0000 C   0  0  0  0  0  0  0  0  0  0  0  0
    1.0065   -1.0065    0.0000 O   0  0  0  0  0  0  0  0  0  0  0  0
    1.5098   -1.8782    0.0000 C   0  0  0  0  0  0  0  0  0  0  0  0
    0.0000    0.0000    0.0000 O   0  0  0  0  0  0  0  0  0  0  0  0
   -1.4862   -1.8374    0.0000 C   0  0  2  0  0  0  0  0  0  0  0  0
   -0.9830   -2.7091    0.0000 C   0  0  0  0  0  0  0  0  0  0  0  0
    0.0236   -2.7091    0.0000 C   0  0  0  0  0  0  0  0  0  0  0  0
    0.5269   -3.5808    0.0000 C   0  0  0  0  0  0  0  0  0  0  0  0
    1.5334   -3.5808    0.0000 C   0  0  0  0  0  0  0  0  0  0  0  0
    0.0236   -4.4525    0.0000 C   0  0  0  0  0  0  0  0  0  0  0  0
   -0.9830   -4.4525    0.0000 C   0  0  0  0  0  0  0  0  0  0  0  0
   -1.4862   -5.3242    0.0000 C   0  0  0  0  0  0  0  0  0  0  0  0
   -1.4862   -3.5808    0.0000 C   0  0  0  0  0  0  0  0  0  0  0  0
   -2.4456   -1.8374    0.0000 C   0  0  0  0  0  0  0  0  0  0  0  0
   -2.9253   -1.0065    0.0000 C   0  0  1  0  0  0  0  0  0  0  0  0
   -3.4253   -1.8726    0.0000 H   0  0  0  0  0  0  0  0  0  0  0  0
   -3.8852   -1.0067    0.0000 C   0  0  0  0  0  0  0  0  0  0  0  0
   -4.3649   -1.8375    0.0000 N   0  0  0  0  0  0  0  0  0  0  0  0
   -5.3247   -1.8377    0.0000 C   0  0  0  0  0  0  0  0  0  0  0  0
   -5.8046   -1.0063    0.0000 C   0  0  0  0  0  0  0  0  0  0  0  0
   -4.3651   -0.1753    0.0000 C   0  0  0  0  0  0  0  0  0  0  0  0
   -3.8850    0.6558    0.0000 C   0  0  0  0  0  0  0  0  0  0  0  0
   -2.9256    0.6557    0.0000 C   0  0  0  0  0  0  0  0  0  0  0  0
   -2.4456   -0.1757    0.0000 N   0  0  0  0  0  0  0  0  0  0  0  0
   -1.4862   -0.1757    0.0000 C   0  0  0  0  0  0  0  0  0  0  0  0
   -0.9830    0.6960    0.0000 O   0  0  0  0  0  0  0  0  0  0  0  0
   -6.7645   -1.0064    0.0000 C   0  0  0  0  0  0  0  0  0  0  0  0
   -7.2442   -1.8373    0.0000 C   0  0  0  0  0  0  0  0  0  0  0  0
   -6.7642   -2.6687    0.0000 C   0  0  0  0  0  0  0  0  0  0  0  0
   -5.8048   -2.6688    0.0000 C   0  0  0  0  0  0  0  0  0  0  0  0
  1  2  1  1  0  0  0
  1 28  1  0  0  0  0
  1  8  1  0  0  0  0
  2  3  1  0  0  0  0
  2  5  1  0  0  0  0
  2  7  2  0  0  0  0
  3  4  1  0  0  0  0
  5  6  1  0  0  0  0
  8  9  1  6  0  0  0
  8 17  1  0  0  0  0
  9 16  2  0  0  0  0
  9 10  1  0  0  0  0
 10 11  2  0  0  0  0
 11 12  1  0  0  0  0
 11 13  1  0  0  0  0
 13 14  2  0  0  0  0
 14 15  1  0  0  0  0
 14 16  1  0  0  0  0
 17 18  1  0  0  0  0
 18 27  1  0  0  0  0
 18 19  1  6  0  0  0
 18 20  1  0  0  0  0
 20 24  2  0  0  0  0
 20 21  1  0  0  0  0
 21 22  1  0  0  0  0
 22 33  2  0  0  0  0
 22 23  1  0  0  0  0
 23 24  1  0  0  0  0
 23 30  2  0  0  0  0
 24 25  1  0  0  0  0
 25 26  1  0  0  0  0
 26 27  1  0  0  0  0
 27 28  1  0  0  0  0
 28 29  2  0  0  0  0
 30 31  1  0  0  0  0
 31 32  2  0  0  0  0
 32 33  1  0  0  0  0
M  END
> <NMREDATA_VERSION>
1.1

> <NMREDATA_LEVEL>
0

> <NMREDATA_SOLVENT>
CDCl3

> <NMREDATA_FORMULA>
C25H29N2O4P

> <NMREDATA_SMILES>
COP(=O)([C@H]1[C@@H](C[C@@H]2N(C1=O)CCc1c2[nH]c2c1cccc2)c1cc(C)cc(c1)C)OC

> <NMREDATA_ASSIGNMENT>
P2, 27.10, 2

> <NMREDATA_1D_31P>
Larmor=162
27.10, L=P2

$$$$
