
 OpenBabel06112616432D

 44 47  0  0  0  0  0  0  0  0999 V2000
    0.0000   -1.9184    0.0000 C   0  0  0  0  0  0  0  0  0  0  0  0
   -0.8307   -1.4388    0.0000 O   0  0  0  0  0  0  0  0  0  0  0  0
   -0.8307   -0.4796    0.0000 C   0  0  0  0  0  0  0  0  0  0  0  0
   -1.6614    0.0000    0.0000 C   0  0  0  0  0  0  0  0  0  0  0  0
   -3.3227   -0.9592    0.0000 O   0  0  0  0  0  0  0  0  0  0  0  0
   -3.3227   -1.9184    0.0000 P   0  0  0  0  0  0  0  0  0  0  0  0
   -2.4920   -2.3980    0.0000 C   0  0  0  0  0  0  0  0  0  0  0  0
   -1.6614   -1.9184    0.0000 C   0  0  0  0  0  0  0  0  0  0  0  0
   -2.4920   -3.3571    0.0000 C   0  0  0  0  0  0  0  0  0  0  0  0
   -4.1534   -2.3980    0.0000 C   0  0  0  0  0  0  0  0  0  0  0  0
   -4.1534   -3.3571    0.0000 C   0  0  0  0  0  0  0  0  0  0  0  0
   -4.9841   -1.9184    0.0000 C   0  0  0  0  0  0  0  0  0  0  0  0
   -1.6614    0.9592    0.0000 C   0  0  0  0  0  0  0  0  0  0  0  0
   -2.4920    1.4388    0.0000 C   0  0  0  0  0  0  0  0  0  0  0  0
   -2.4920    2.3980    0.0000 C   0  0  0  0  0  0  0  0  0  0  0  0
   -0.8307    3.3571    0.0000 O   0  0  0  0  0  0  0  0  0  0  0  0
   -0.8307    4.3163    0.0000 P   0  0  0  0  0  0  0  0  0  0  0  0
   -1.6614    4.7959    0.0000 C   0  0  0  0  0  0  0  0  0  0  0  0
   -2.4920    4.3163    0.0000 C   0  0  0  0  0  0  0  0  0  0  0  0
   -1.6614    5.7551    0.0000 C   0  0  0  0  0  0  0  0  0  0  0  0
    0.0000    4.7959    0.0000 C   0  0  0  0  0  0  0  0  0  0  0  0
    0.0000    5.7551    0.0000 C   0  0  0  0  0  0  0  0  0  0  0  0
    0.8307    4.3163    0.0000 C   0  0  0  0  0  0  0  0  0  0  0  0
   -3.3227    2.8776    0.0000 C   0  0  0  0  0  0  0  0  0  0  0  0
   -3.3227    3.8367    0.0000 O   0  0  0  0  0  0  0  0  0  0  0  0
   -4.1534    4.3163    0.0000 C   0  0  0  0  0  0  0  0  0  0  0  0
   -4.1534    2.3980    0.0000 C   0  0  0  0  0  0  0  0  0  0  0  0
   -4.1534    1.4388    0.0000 C   0  0  0  0  0  0  0  0  0  0  0  0
   -4.9841    0.9592    0.0000 C   0  0  0  0  0  0  0  0  0  0  0  0
   -5.8147    1.4388    0.0000 C   0  0  0  0  0  0  0  0  0  0  0  0
   -6.6454    0.9592    0.0000 C   0  0  0  0  0  0  0  0  0  0  0  0
   -6.6454    0.0000    0.0000 C   0  0  0  0  0  0  0  0  0  0  0  0
   -5.8147   -0.4796    0.0000 C   0  0  0  0  0  0  0  0  0  0  0  0
   -4.9841    0.0000    0.0000 C   0  0  0  0  0  0  0  0  0  0  0  0
   -3.3227    0.9592    0.0000 C   0  0  0  0  0  0  0  0  0  0  0  0
   -0.8307    1.4388    0.0000 C   0  0  0  0  0  0  0  0  0  0  0  0
    0.0000    0.9592    0.0000 C   0  0  0  0  0  0  0  0  0  0  0  0
    0.8307    1.4388    0.0000 C   0  0  0  0  0  0  0  0  0  0  0  0
    0.8307    2.3980    0.0000 C   0  0  0  0  0  0  0  0  0  0  0  0
    1.6614    2.8776    0.0000 C   0  0  0  0  0  0  0  0  0  0  0  0
    2.4920    2.3980    0.0000 C   0  0  0  0  0  0  0  0  0  0  0  0
    2.4920    1.4388    0.0000 C   0  0  0  0  0  0  0  0  0  0  0  0
    1.6614    0.9592    0.0000 C   0  0  0  0  0  0  0  0  0  0  0  0
    0.0000    0.0000    0.0000 C   0  0  0  0  0  0  0  0  0  0  0  0
  1  2  1  0  0  0  0
  2  3  1  0  0  0  0
  3 44  2  0  0  0  0
  3  4  1  0  0  0  0
  4  5  1  0  0  0  0
  4 13  2  0  0  0  0
  5  6  1  0  0  0  0
  6  7  1  0  0  0  0
  6 10  1  0  0  0  0
  7  8  1  0  0  0  0
  7  9  1  0  0  0  0
 10 11  1  0  0  0  0
 10 12  1  0  0  0  0
 13 14  1  0  0  0  0
 13 36  1  0  0  0  0
 14 35  2  0  0  0  0
 14 15  1  0  0  0  0
 15 16  1  0  0  0  0
 15 24  2  0  0  0  0
 16 17  1  0  0  0  0
 17 18  1  0  0  0  0
 17 21  1  0  0  0  0
 18 19  1  0  0  0  0
 18 20  1  0  0  0  0
 21 22  1  0  0  0  0
 21 23  1  0  0  0  0
 24 25  1  0  0  0  0
 24 27  1  0  0  0  0
 25 26  1  0  0  0  0
 27 28  2  0  0  0  0
 28 29  1  0  0  0  0
 28 35  1  0  0  0  0
 29 34  1  0  0  0  0
 29 30  1  0  0  0  0
 30 31  1  0  0  0  0
 31 32  1  0  0  0  0
 32 33  1  0  0  0  0
 33 34  1  0  0  0  0
 36 37  2  0  0  0  0
 37 38  1  0  0  0  0
 37 44  1  0  0  0  0
 38 43  1  0  0  0  0
 38 39  1  0  0  0  0
 39 40  1  0  0  0  0
 40 41  1  0  0  0  0
 41 42  1  0  0  0  0
 42 43  1  0  0  0  0
M  END
> <NMREDATA_VERSION>
1.1

> <NMREDATA_LEVEL>
0

> <NMREDATA_SOLVENT>
C6D6

> <NMREDATA_FORMULA>
C38H60O4P2

> <NMREDATA_SMILES>
COc1cc(cc(c1OP(C(C)C)C(C)C)c1cc(cc(c1OP(C(C)C)C(C)C)OC)C1CCCCC1)C1CCCCC1

> <NMREDATA_ASSIGNMENT>
P6, 161.51, 6
P17, 161.51, 17

> <NMREDATA_1D_31P>
Larmor=162
161.51, L=P6
161.51, L=P17

$$$$
