
 OpenBabel06112616482D

 66 72  0  0  1  0  0  0  0  0999 V2000
    2.3982   -0.4615    0.0000 C   0  0  0  0  0  0  0  0  0  0  0  0
    1.5988    0.0000    0.0000 C   0  0  0  0  0  0  0  0  0  0  0  0
    1.5988    0.9231    0.0000 C   0  0  0  0  0  0  0  0  0  0  0  0
    0.7994   -0.4615    0.0000 C   0  0  0  0  0  0  0  0  0  0  0  0
    0.7994   -1.3846    0.0000 C   0  0  0  0  0  0  0  0  0  0  0  0
    0.0000   -1.8462    0.0000 C   0  0  0  0  0  0  0  0  0  0  0  0
    0.0000   -2.7692    0.0000 C   0  0  0  0  0  0  0  0  0  0  0  0
   -0.7994   -3.2308    0.0000 C   0  0  0  0  0  0  0  0  0  0  0  0
    0.7994   -3.2308    0.0000 C   0  0  0  0  0  0  0  0  0  0  0  0
   -0.7994   -1.3846    0.0000 C   0  0  0  0  0  0  0  0  0  0  0  0
   -0.7994   -0.4615    0.0000 C   0  0  0  0  0  0  0  0  0  0  0  0
   -1.5988    0.0000    0.0000 C   0  0  0  0  0  0  0  0  0  0  0  0
    1.5988    1.8462    0.0000 C   0  0  0  0  0  0  0  0  0  0  0  0
    1.5988    2.7692    0.0000 C   0  0  0  0  0  0  0  0  0  0  0  0
    2.3982    3.2308    0.0000 C   0  0  0  0  0  0  0  0  0  0  0  0
    2.3982    4.1538    0.0000 C   0  0  0  0  0  0  0  0  0  0  0  0
    3.1976    4.6154    0.0000 C   0  0  0  0  0  0  0  0  0  0  0  0
    1.5988    4.6154    0.0000 C   0  0  0  0  0  0  0  0  0  0  0  0
    3.1976    2.7692    0.0000 C   0  0  0  0  0  0  0  0  0  0  0  0
    3.1976    1.8462    0.0000 C   0  0  0  0  0  0  0  0  0  0  0  0
    3.9970    1.3846    0.0000 C   0  0  0  0  0  0  0  0  0  0  0  0
    3.9970    0.4615    0.0000 C   0  0  0  0  0  0  0  0  0  0  0  0
    4.7964    1.8462    0.0000 C   0  0  0  0  0  0  0  0  0  0  0  0
    2.3982    1.3846    0.0000 C   0  0  0  0  0  0  0  0  0  0  0  0
   -1.9993    0.8317    0.0000 O   0  0  0  0  0  0  0  0  0  0  0  0
   -2.8993    1.0371    0.0000 P   0  0  3  0  0  0  0  0  0  0  0  0
   -3.1047    1.9370    0.0000 C   0  0  0  0  0  0  0  0  0  0  0  0
   -3.9867    2.2091    0.0000 C   0  0  0  0  0  0  0  0  0  0  0  0
   -4.1921    3.1090    0.0000 C   0  0  0  0  0  0  0  0  0  0  0  0
   -3.5155    3.7369    0.0000 C   0  0  0  0  0  0  0  0  0  0  0  0
   -2.6334    3.4648    0.0000 C   0  0  0  0  0  0  0  0  0  0  0  0
   -2.4280    2.5649    0.0000 C   0  0  0  0  0  0  0  0  0  0  0  0
   -3.6209    0.4615    0.0000 O   0  0  0  0  0  0  0  0  0  0  0  0
   -3.6209   -0.4615    0.0000 C   0  0  0  0  0  0  0  0  0  0  0  0
   -7.3029   -0.1856    0.0000 C   0  0  0  0  0  0  0  0  0  0  0  0
   -7.8229   -0.9483    0.0000 C   0  0  0  0  0  0  0  0  0  0  0  0
   -8.7434   -0.8793    0.0000 C   0  0  0  0  0  0  0  0  0  0  0  0
   -9.2634   -1.6420    0.0000 C   0  0  0  0  0  0  0  0  0  0  0  0
  -10.1839   -1.5730    0.0000 C   0  0  0  0  0  0  0  0  0  0  0  0
   -8.8629   -2.4737    0.0000 C   0  0  0  0  0  0  0  0  0  0  0  0
   -9.1439   -0.0476    0.0000 C   0  0  0  0  0  0  0  0  0  0  0  0
   -8.6239    0.7150    0.0000 C   0  0  0  0  0  0  0  0  0  0  0  0
   -9.0244    1.5467    0.0000 C   0  0  0  0  0  0  0  0  0  0  0  0
   -8.5045    2.3094    0.0000 C   0  0  0  0  0  0  0  0  0  0  0  0
   -9.9449    1.6157    0.0000 C   0  0  0  0  0  0  0  0  0  0  0  0
   -7.7034    0.6461    0.0000 C   0  0  0  0  0  0  0  0  0  0  0  0
   -4.1409   -1.2242    0.0000 C   0  0  0  0  0  0  0  0  0  0  0  0
   -3.7404   -2.0559    0.0000 C   0  0  0  0  0  0  0  0  0  0  0  0
   -4.2604   -2.8186    0.0000 C   0  0  0  0  0  0  0  0  0  0  0  0
   -3.8599   -3.6502    0.0000 C   0  0  0  0  0  0  0  0  0  0  0  0
   -4.3799   -4.4129    0.0000 C   0  0  0  0  0  0  0  0  0  0  0  0
   -2.9394   -3.7192    0.0000 C   0  0  0  0  0  0  0  0  0  0  0  0
   -5.1809   -2.7496    0.0000 C   0  0  0  0  0  0  0  0  0  0  0  0
   -5.5814   -1.9179    0.0000 C   0  0  0  0  0  0  0  0  0  0  0  0
   -6.5019   -1.8489    0.0000 C   0  0  0  0  0  0  0  0  0  0  0  0
   -6.9024   -1.0173    0.0000 C   0  0  0  0  0  0  0  0  0  0  0  0
   -7.0219   -2.6116    0.0000 C   0  0  0  0  0  0  0  0  0  0  0  0
   -5.0614   -1.1552    0.0000 C   0  0  0  0  0  0  0  0  0  0  0  0
   -2.8993   -1.0371    0.0000 C   0  0  1  0  0  0  0  0  0  0  0  0
   -1.9993   -0.8317    0.0000 C   0  0  1  0  0  0  0  0  0  0  0  0
   -1.5259   -1.6241    0.0000 O   0  0  0  0  0  0  0  0  0  0  0  0
   -2.1332   -2.3192    0.0000 C   0  0  0  0  0  0  0  0  0  0  0  0
   -2.4053   -3.2013    0.0000 C   0  0  0  0  0  0  0  0  0  0  0  0
   -1.5054   -2.9959    0.0000 C   0  0  0  0  0  0  0  0  0  0  0  0
   -2.9820   -1.9564    0.0000 O   0  0  0  0  0  0  0  0  0  0  0  0
    0.0000    0.0000    0.0000 C   0  0  0  0  0  0  0  0  0  0  0  0
  1  2  1  0  0  0  0
  2  3  1  0  0  0  0
  2  4  1  0  0  0  0
  4 66  2  0  0  0  0
  4  5  1  0  0  0  0
  5  6  2  0  0  0  0
  6  7  1  0  0  0  0
  6 10  1  0  0  0  0
  7  8  1  0  0  0  0
  7  9  1  0  0  0  0
 10 11  2  0  0  0  0
 11 12  1  0  0  0  0
 11 66  1  0  0  0  0
 12 60  1  0  0  0  0
 12 13  1  0  0  0  0
 12 25  1  0  0  0  0
 13 24  2  0  0  0  0
 13 14  1  0  0  0  0
 14 15  2  0  0  0  0
 15 16  1  0  0  0  0
 15 19  1  0  0  0  0
 16 17  1  0  0  0  0
 16 18  1  0  0  0  0
 19 20  2  0  0  0  0
 20 21  1  0  0  0  0
 20 24  1  0  0  0  0
 21 22  1  0  0  0  0
 21 23  1  0  0  0  0
 25 26  1  0  0  0  0
 26 27  1  0  0  0  0
 26 33  1  0  0  0  0
 27 32  2  0  0  0  0
 27 28  1  0  0  0  0
 28 29  2  0  0  0  0
 29 30  1  0  0  0  0
 30 31  2  0  0  0  0
 31 32  1  0  0  0  0
 33 34  1  0  0  0  0
 34 35  1  0  0  0  0
 34 47  1  0  0  0  0
 34 59  1  0  0  0  0
 35 46  2  0  0  0  0
 35 36  1  0  0  0  0
 36 37  2  0  0  0  0
 37 38  1  0  0  0  0
 37 41  1  0  0  0  0
 38 39  1  0  0  0  0
 38 40  1  0  0  0  0
 41 42  2  0  0  0  0
 42 43  1  0  0  0  0
 42 46  1  0  0  0  0
 43 44  1  0  0  0  0
 43 45  1  0  0  0  0
 47 58  2  0  0  0  0
 47 48  1  0  0  0  0
 48 49  2  0  0  0  0
 49 50  1  0  0  0  0
 49 53  1  0  0  0  0
 50 51  1  0  0  0  0
 50 52  1  0  0  0  0
 53 54  2  0  0  0  0
 54 55  1  0  0  0  0
 54 58  1  0  0  0  0
 55 56  1  0  0  0  0
 55 57  1  0  0  0  0
 59 60  1  0  0  0  0
 59 65  1  1  0  0  0
 60 61  1  6  0  0  0
 61 62  1  0  0  0  0
 62 63  1  0  0  0  0
 62 64  1  0  0  0  0
 62 65  1  0  0  0  0
M  END
> <NMREDATA_VERSION>
1.1

> <NMREDATA_LEVEL>
0

> <NMREDATA_SOLVENT>
CDCl3

> <NMREDATA_FORMULA>
C61H81O4P

> <NMREDATA_SMILES>
CC(c1cc(cc(c1)C1(OP(OC([C@H]2[C@H]1OC(O2)(C)C)(c1cc(cc(c1)C(C)C)C(C)C)c1cc(cc(c1)C(C)C)C(C)C)c1ccccc1)c1cc(cc(c1)C(C)C)C(C)C)C(C)C)C

> <NMREDATA_ASSIGNMENT>
P26, 155.46, 26

> <NMREDATA_1D_31P>
Larmor=162
155.46, L=P26

$$$$
