
 OpenBabel06112616482D

 25 27  0  0  1  0  0  0  0  0999 V2000
    1.9286    0.7059    0.0000 C    0  0  0  0  0  0  0  0  0  0  0  0
    2.4107   -0.1292    0.0000 C    0  0  1  0  0  0  0  0  0  0  0  0
    3.3750   -0.1292    0.0000 C    0  0  0  0  0  0  0  0  0  0  0  0
    3.8571    0.7059    0.0000 C    0  0  0  0  0  0  0  0  0  0  0  0
    4.8214    0.7059    0.0000 C    0  0  0  0  0  0  0  0  0  0  0  0
    5.3036    1.5410    0.0000 Cl   0  0  0  0  0  0  0  0  0  0  0  0
    5.3036   -0.1292    0.0000 C    0  0  0  0  0  0  0  0  0  0  0  0
    4.8214   -0.9643    0.0000 C    0  0  0  0  0  0  0  0  0  0  0  0
    3.8571   -0.9643    0.0000 C    0  0  0  0  0  0  0  0  0  0  0  0
    3.3750   -1.7994    0.0000 O    0  0  0  0  0  0  0  0  0  0  0  0
    2.4107   -1.7994    0.0000 P    0  0  2  0  0  0  0  0  0  0  0  0
    1.5756   -2.2815    0.0000 C    0  0  0  0  0  0  0  0  0  0  0  0
    2.4107   -2.7637    0.0000 O    0  0  0  0  0  0  0  0  0  0  0  0
    1.9286   -0.9643    0.0000 N    0  0  0  0  0  0  0  0  0  0  0  0
    0.0000   -0.9643    0.0000 S    0  0  0  0  0  0  0  0  0  0  0  0
    0.0000   -1.9286    0.0000 O    0  0  0  0  0  0  0  0  0  0  0  0
   -0.9643   -0.9643    0.0000 O    0  0  0  0  0  0  0  0  0  0  0  0
    0.0000    0.0000    0.0000 C    0  0  0  0  0  0  0  0  0  0  0  0
    0.8351    0.4821    0.0000 C    0  0  0  0  0  0  0  0  0  0  0  0
    0.8351    1.4464    0.0000 C    0  0  0  0  0  0  0  0  0  0  0  0
    1.6702    1.9286    0.0000 Cl   0  0  0  0  0  0  0  0  0  0  0  0
    0.0000    1.9286    0.0000 C    0  0  0  0  0  0  0  0  0  0  0  0
   -0.8351    1.4464    0.0000 C    0  0  0  0  0  0  0  0  0  0  0  0
   -0.8351    0.4821    0.0000 C    0  0  0  0  0  0  0  0  0  0  0  0
   -1.6702    0.0000    0.0000 Cl   0  0  0  0  0  0  0  0  0  0  0  0
  2  1  1  1  0  0  0
  2  3  1  0  0  0  0
  2 14  1  0  0  0  0
  3  9  2  0  0  0  0
  3  4  1  0  0  0  0
  4  5  2  0  0  0  0
  5  6  1  0  0  0  0
  5  7  1  0  0  0  0
  7  8  2  0  0  0  0
  8  9  1  0  0  0  0
  9 10  1  0  0  0  0
 10 11  1  0  0  0  0
 11 12  1  1  0  0  0
 11 13  2  0  0  0  0
 11 14  1  0  0  0  0
 14 15  1  0  0  0  0
 15 16  2  0  0  0  0
 15 17  2  0  0  0  0
 15 18  1  0  0  0  0
 18 24  2  0  0  0  0
 18 19  1  0  0  0  0
 19 20  2  0  0  0  0
 20 21  1  0  0  0  0
 20 22  1  0  0  0  0
 22 23  2  0  0  0  0
 23 24  1  0  0  0  0
 24 25  1  0  0  0  0
M  END
> <NMREDATA_VERSION>
1.1

> <NMREDATA_LEVEL>
0

> <NMREDATA_SOLVENT>
CDCl3

> <NMREDATA_FORMULA>
C15H13Cl3NO4PS

> <NMREDATA_SMILES>
Clc1ccc2c(c1)[C@H](C)N([P@@](=O)(O2)C)S(=O)(=O)c1cc(Cl)ccc1Cl

> <NMREDATA_ASSIGNMENT>
P11, 23.93, 11

> <NMREDATA_1D_31P>
Larmor=162
23.93, L=P11

$$$$
