
 OpenBabel06112616472D

 28 30  0  0  0  0  0  0  0  0999 V2000
    2.7321    1.0000    0.0000 C   0  0  0  0  0  0  0  0  0  0  0  0
    1.8660    1.5000    0.0000 C   0  0  0  0  0  0  0  0  0  0  0  0
    1.0000    1.0000    0.0000 O   0  0  0  0  0  0  0  0  0  0  0  0
    1.0000    0.0000    0.0000 P   0  0  0  0  0  0  0  0  0  0  0  0
    2.0000    0.0000    0.0000 O   0  0  0  0  0  0  0  0  0  0  0  0
    1.0000   -1.0000    0.0000 O   0  0  0  0  0  0  0  0  0  0  0  0
    1.8660   -1.5000    0.0000 C   0  0  0  0  0  0  0  0  0  0  0  0
    1.8660   -2.5000    0.0000 C   0  0  0  0  0  0  0  0  0  0  0  0
    0.0000    0.0000    0.0000 C   0  0  0  0  0  0  0  0  0  0  0  0
   -0.5878    0.8090    0.0000 C   0  0  0  0  0  0  0  0  0  0  0  0
   -0.2788    1.7601    0.0000 C   0  0  0  0  0  0  0  0  0  0  0  0
    0.4644    2.4292    0.0000 F   0  0  0  0  0  0  0  0  0  0  0  0
    0.6723    1.4511    0.0000 F   0  0  0  0  0  0  0  0  0  0  0  0
   -0.9479    2.5032    0.0000 C   0  0  0  0  0  0  0  0  0  0  0  0
   -1.1558    3.4814    0.0000 F   0  0  0  0  0  0  0  0  0  0  0  0
   -0.2048    3.1723    0.0000 F   0  0  0  0  0  0  0  0  0  0  0  0
   -1.9260    2.2953    0.0000 F   0  0  0  0  0  0  0  0  0  0  0  0
   -1.5388    0.5000    0.0000 O   0  0  0  0  0  0  0  0  0  0  0  0
   -1.5388   -0.5000    0.0000 C   0  0  0  0  0  0  0  0  0  0  0  0
   -0.5878   -0.8090    0.0000 C   0  0  0  0  0  0  0  0  0  0  0  0
   -0.3799   -1.7872    0.0000 C   0  0  0  0  0  0  0  0  0  0  0  0
   -1.1230   -2.4563    0.0000 C   0  0  0  0  0  0  0  0  0  0  0  0
   -2.0741   -2.1473    0.0000 C   0  0  0  0  0  0  0  0  0  0  0  0
   -2.8172   -2.8164    0.0000 C   0  0  0  0  0  0  0  0  0  0  0  0
   -3.7683   -2.5074    0.0000 C   0  0  0  0  0  0  0  0  0  0  0  0
   -3.9762   -1.5292    0.0000 C   0  0  0  0  0  0  0  0  0  0  0  0
   -3.2330   -0.8601    0.0000 C   0  0  0  0  0  0  0  0  0  0  0  0
   -2.2820   -1.1691    0.0000 C   0  0  0  0  0  0  0  0  0  0  0  0
  1  2  1  0  0  0  0
  2  3  1  0  0  0  0
  3  4  1  0  0  0  0
  4  5  2  0  0  0  0
  4  6  1  0  0  0  0
  4  9  1  0  0  0  0
  6  7  1  0  0  0  0
  7  8  1  0  0  0  0
  9 20  1  0  0  0  0
  9 10  2  0  0  0  0
 10 11  1  0  0  0  0
 10 18  1  0  0  0  0
 11 12  1  0  0  0  0
 11 13  1  0  0  0  0
 11 14  1  0  0  0  0
 14 15  1  0  0  0  0
 14 16  1  0  0  0  0
 14 17  1  0  0  0  0
 18 19  1  0  0  0  0
 19 28  2  0  0  0  0
 19 20  1  0  0  0  0
 20 21  2  0  0  0  0
 21 22  1  0  0  0  0
 22 23  2  0  0  0  0
 23 28  1  0  0  0  0
 23 24  1  0  0  0  0
 24 25  2  0  0  0  0
 25 26  1  0  0  0  0
 26 27  2  0  0  0  0
 27 28  1  0  0  0  0
M  END
> <NMREDATA_VERSION>
1.1

> <NMREDATA_LEVEL>
0

> <NMREDATA_SOLVENT>
CDCl3

> <NMREDATA_FORMULA>
C18H16F5O4P

> <NMREDATA_SMILES>
CCOP(=O)(c1c2ccc3c(c2oc1C(C(F)(F)F)(F)F)cccc3)OCC

> <NMREDATA_ASSIGNMENT>
P4, 8.57, 4

> <NMREDATA_1D_31P>
Larmor=162
8.57, L=P4

$$$$
