
 OpenBabel06112616442D

  8  6  0  0  0  0  0  0  0  0999 V2000
    3.9641   -1.0000    0.0000 C    0  0  0  0  0  0  0  0  0  0  0  0
    3.0981   -0.5000    0.0000 C    0  0  0  0  0  0  0  0  0  0  0  0
    2.2321   -1.0000    0.0000 P    0  3  0  0  0  0  0  0  0  0  0  0
    1.3660   -0.5000    0.0000 C    0  0  0  0  0  0  0  0  0  0  0  0
    0.5000   -1.0000    0.0000 C    0  0  0  0  0  0  0  0  0  0  0  0
    2.2321   -2.0000    0.0000 C    0  0  0  0  0  0  0  0  0  0  0  0
    1.3660   -2.5000    0.0000 C    0  0  0  0  0  0  0  0  0  0  0  0
    4.9641   -0.5000    0.0000 Br   0  5  0  0  0  0  0  0  0  0  0  0
  1  2  1  0  0  0  0
  2  3  1  0  0  0  0
  3  4  1  0  0  0  0
  3  6  1  0  0  0  0
  4  5  1  0  0  0  0
  6  7  1  0  0  0  0
M  END
> <NMREDATA_VERSION>
1.1

> <NMREDATA_LEVEL>
0

> <NMREDATA_SOLVENT>
CDCl3

> <NMREDATA_FORMULA>
C6H15BrP

> <NMREDATA_SMILES>
CCP(CC)CC.Br

> <NMREDATA_ASSIGNMENT>
P3, 19.20, 3

> <NMREDATA_1D_31P>
Larmor=80
19.20, L=P3

$$$$
