
 OpenBabel06112616472D

 24 25  0  0  0  0  0  0  0  0999 V2000
    0.9615   -3.8462    0.0000 C    0  0  0  0  0  0  0  0  0  0  0  0
    0.1288   -3.3654    0.0000 C    0  0  0  0  0  0  0  0  0  0  0  0
    0.1288   -2.4038    0.0000 C    0  0  0  0  0  0  0  0  0  0  0  0
    0.9615   -1.9231    0.0000 C    0  0  0  0  0  0  0  0  0  0  0  0
    0.9615    0.0000    0.0000 Si   0  0  3  0  0  0  0  0  0  0  0  0
    1.9231    0.0000    0.0000 C    0  0  0  0  0  0  0  0  0  0  0  0
    0.9615    0.9615    0.0000 C    0  0  0  0  0  0  0  0  0  0  0  0
    1.7943    1.4423    0.0000 C    0  0  0  0  0  0  0  0  0  0  0  0
    0.0000    0.0000    0.0000 C    0  0  0  0  0  0  0  0  0  0  0  0
   -0.4808   -0.8327    0.0000 C    0  0  0  0  0  0  0  0  0  0  0  0
   -1.4423   -0.8327    0.0000 C    0  0  0  0  0  0  0  0  0  0  0  0
   -1.9231    0.0000    0.0000 C    0  0  0  0  0  0  0  0  0  0  0  0
   -1.4423    0.8327    0.0000 C    0  0  0  0  0  0  0  0  0  0  0  0
   -0.4808    0.8327    0.0000 C    0  0  0  0  0  0  0  0  0  0  0  0
    1.7943   -2.4038    0.0000 C    0  0  0  0  0  0  0  0  0  0  0  0
    2.6270   -1.9231    0.0000 P    0  0  0  0  0  0  0  0  0  0  0  0
    3.1077   -2.7558    0.0000 O    0  0  0  0  0  0  0  0  0  0  0  0
    3.4597   -1.4423    0.0000 O    0  0  0  0  0  0  0  0  0  0  0  0
    4.2924   -1.9231    0.0000 C    0  0  0  0  0  0  0  0  0  0  0  0
    5.1251   -1.4423    0.0000 C    0  0  0  0  0  0  0  0  0  0  0  0
    2.1462   -1.0904    0.0000 O    0  0  0  0  0  0  0  0  0  0  0  0
    2.6270   -0.2576    0.0000 C    0  0  0  0  0  0  0  0  0  0  0  0
    3.5885   -0.2576    0.0000 C    0  0  0  0  0  0  0  0  0  0  0  0
    1.7943   -3.3654    0.0000 C    0  0  0  0  0  0  0  0  0  0  0  0
  1 24  2  0  0  0  0
  1  2  1  0  0  0  0
  2  3  2  0  0  0  0
  3  4  1  0  0  0  0
  4  5  1  0  0  0  0
  4 15  2  0  0  0  0
  5  6  1  0  0  0  0
  5  7  1  0  0  0  0
  5  9  1  0  0  0  0
  7  8  1  0  0  0  0
  9 14  2  0  0  0  0
  9 10  1  0  0  0  0
 10 11  2  0  0  0  0
 11 12  1  0  0  0  0
 12 13  2  0  0  0  0
 13 14  1  0  0  0  0
 15 16  1  0  0  0  0
 15 24  1  0  0  0  0
 16 17  2  0  0  0  0
 16 18  1  0  0  0  0
 16 21  1  0  0  0  0
 18 19  1  0  0  0  0
 19 20  1  0  0  0  0
 21 22  1  0  0  0  0
 22 23  1  0  0  0  0
M  END
> <NMREDATA_VERSION>
1.1

> <NMREDATA_LEVEL>
0

> <NMREDATA_SOLVENT>
CDCl3

> <NMREDATA_FORMULA>
C19H27O3PSi

> <NMREDATA_SMILES>
CCOP(=O)(c1ccccc1[Si](c1ccccc1)(CC)C)OCC

> <NMREDATA_ASSIGNMENT>
P16, 19.60, 16

> <NMREDATA_1D_31P>
Larmor=162
19.60, L=P16

$$$$
