
 OpenBabel06112616492D

 51 55  0  0  0  0  0  0  0  0999 V2000
    2.5946   -0.4230    0.0000 C   0  0  0  0  0  0  0  0  0  0  0  0
    1.6339   -0.6272    0.0000 C   0  0  0  0  0  0  0  0  0  0  0  0
    0.9041   -1.2844    0.0000 C   0  0  0  0  0  0  0  0  0  0  0  0
    1.8381   -1.5879    0.0000 C   0  0  0  0  0  0  0  0  0  0  0  0
    0.9768    0.1027    0.0000 P   0  0  3  0  0  0  0  0  0  0  0  0
    1.1810    1.0633    0.0000 C   0  0  0  0  0  0  0  0  0  0  0  0
    2.0315    1.5544    0.0000 C   0  0  0  0  0  0  0  0  0  0  0  0
    3.7326    0.5723    0.0000 C   0  0  0  0  0  0  0  0  0  0  0  0
    3.7326   -0.4099    0.0000 C   0  0  0  0  0  0  0  0  0  0  0  0
    2.8821   -0.9009    0.0000 O   0  0  0  0  0  0  0  0  0  0  0  0
    2.8821   -1.8831    0.0000 C   0  0  0  0  0  0  0  0  0  0  0  0
    4.5832   -0.9009    0.0000 C   0  0  0  0  0  0  0  0  0  0  0  0
    4.5832   -1.8831    0.0000 C   0  0  0  0  0  0  0  0  0  0  0  0
    3.7326   -2.3742    0.0000 C   0  0  0  0  0  0  0  0  0  0  0  0
    3.7326   -3.3563    0.0000 C   0  0  0  0  0  0  0  0  0  0  0  0
    2.8821   -3.8474    0.0000 C   0  0  0  0  0  0  0  0  0  0  0  0
    1.8999   -3.8474    0.0000 F   0  0  0  0  0  0  0  0  0  0  0  0
    2.3910   -2.9968    0.0000 F   0  0  0  0  0  0  0  0  0  0  0  0
    2.8821   -4.8295    0.0000 F   0  0  0  0  0  0  0  0  0  0  0  0
    4.5832   -3.8474    0.0000 C   0  0  0  0  0  0  0  0  0  0  0  0
    5.4338   -3.3563    0.0000 C   0  0  0  0  0  0  0  0  0  0  0  0
    6.2843   -3.8474    0.0000 C   0  0  0  0  0  0  0  0  0  0  0  0
    6.7754   -4.6979    0.0000 F   0  0  0  0  0  0  0  0  0  0  0  0
    5.7933   -4.6979    0.0000 F   0  0  0  0  0  0  0  0  0  0  0  0
    7.1349   -3.3563    0.0000 F   0  0  0  0  0  0  0  0  0  0  0  0
    5.4338   -2.3742    0.0000 C   0  0  0  0  0  0  0  0  0  0  0  0
    5.4338   -0.4099    0.0000 C   0  0  0  0  0  0  0  0  0  0  0  0
    5.4338    0.5723    0.0000 C   0  0  0  0  0  0  0  0  0  0  0  0
    6.2843    1.0633    0.0000 C   0  0  0  0  0  0  0  0  0  0  0  0
    7.1349    0.5723    0.0000 C   0  0  0  0  0  0  0  0  0  0  0  0
    7.9854    1.0633    0.0000 C   0  0  0  0  0  0  0  0  0  0  0  0
    8.8360    0.5723    0.0000 C   0  0  0  0  0  0  0  0  0  0  0  0
    9.3271   -0.2783    0.0000 F   0  0  0  0  0  0  0  0  0  0  0  0
    8.3449   -0.2783    0.0000 F   0  0  0  0  0  0  0  0  0  0  0  0
    9.6866    1.0633    0.0000 F   0  0  0  0  0  0  0  0  0  0  0  0
    7.9854    2.0455    0.0000 C   0  0  0  0  0  0  0  0  0  0  0  0
    7.1349    2.5366    0.0000 C   0  0  0  0  0  0  0  0  0  0  0  0
    7.1349    3.5187    0.0000 C   0  0  0  0  0  0  0  0  0  0  0  0
    7.6260    4.3693    0.0000 F   0  0  0  0  0  0  0  0  0  0  0  0
    8.1170    3.5187    0.0000 F   0  0  0  0  0  0  0  0  0  0  0  0
    6.2843    4.0098    0.0000 F   0  0  0  0  0  0  0  0  0  0  0  0
    6.2843    2.0455    0.0000 C   0  0  0  0  0  0  0  0  0  0  0  0
    4.5832    1.0633    0.0000 C   0  0  0  0  0  0  0  0  0  0  0  0
    4.5832    2.0455    0.0000 O   0  0  0  0  0  0  0  0  0  0  0  0
    3.7326    2.5366    0.0000 C   0  0  0  0  0  0  0  0  0  0  0  0
    2.0315    2.5366    0.0000 C   0  0  0  0  0  0  0  0  0  0  0  0
    1.1810    3.0276    0.0000 C   0  0  0  0  0  0  0  0  0  0  0  0
    0.3304    2.5366    0.0000 C   0  0  0  0  0  0  0  0  0  0  0  0
    0.3304    1.5544    0.0000 C   0  0  0  0  0  0  0  0  0  0  0  0
   -0.3995    0.8972    0.0000 O   0  0  0  0  0  0  0  0  0  0  0  0
    0.0000    0.0000    0.0000 C   0  0  0  0  0  0  0  0  0  0  0  0
  1  2  1  0  0  0  0
  2  3  1  0  0  0  0
  2  4  1  0  0  0  0
  2  5  1  0  0  0  0
  5 51  1  0  0  0  0
  5  6  1  0  0  0  0
  6 49  2  0  0  0  0
  6  7  1  0  0  0  0
  7  8  1  0  0  0  0
  7 46  2  0  0  0  0
  8 43  2  0  0  0  0
  8  9  1  0  0  0  0
  9 10  1  0  0  0  0
  9 12  2  0  0  0  0
 10 11  1  0  0  0  0
 12 13  1  0  0  0  0
 12 27  1  0  0  0  0
 13 26  2  0  0  0  0
 13 14  1  0  0  0  0
 14 15  2  0  0  0  0
 15 16  1  0  0  0  0
 15 20  1  0  0  0  0
 16 17  1  0  0  0  0
 16 18  1  0  0  0  0
 16 19  1  0  0  0  0
 20 21  2  0  0  0  0
 21 22  1  0  0  0  0
 21 26  1  0  0  0  0
 22 23  1  0  0  0  0
 22 24  1  0  0  0  0
 22 25  1  0  0  0  0
 27 28  2  0  0  0  0
 28 29  1  0  0  0  0
 28 43  1  0  0  0  0
 29 42  2  0  0  0  0
 29 30  1  0  0  0  0
 30 31  2  0  0  0  0
 31 32  1  0  0  0  0
 31 36  1  0  0  0  0
 32 33  1  0  0  0  0
 32 34  1  0  0  0  0
 32 35  1  0  0  0  0
 36 37  2  0  0  0  0
 37 38  1  0  0  0  0
 37 42  1  0  0  0  0
 38 39  1  0  0  0  0
 38 40  1  0  0  0  0
 38 41  1  0  0  0  0
 43 44  1  0  0  0  0
 44 45  1  0  0  0  0
 46 47  1  0  0  0  0
 47 48  2  0  0  0  0
 48 49  1  0  0  0  0
 49 50  1  0  0  0  0
 50 51  1  0  0  0  0
M  END
> <NMREDATA_VERSION>
1.1

> <NMREDATA_LEVEL>
0

> <NMREDATA_SOLVENT>
CDCl3

> <NMREDATA_FORMULA>
C35H27F12O3P

> <NMREDATA_SMILES>
COc1c(cc(c(c1c1cccc2c1P(CO2)C(C)(C)C)OC)c1cc(cc(c1)C(F)(F)F)C(F)(F)F)c1cc(cc(c1)C(F)(F)F)C(F)(F)F

> <NMREDATA_ASSIGNMENT>
P5, -8.58, 5

> <NMREDATA_1D_31P>
Larmor=162
-8.58, L=P5

$$$$
