
 OpenBabel06112616472D

 20 23  0  0  0  0  0  0  0  0999 V2000
    1.6470   -0.0224    0.0000 O   0  0  0  0  0  0  0  0  0  0  0  0
    0.8039    0.4643    0.0000 P   0  0  0  0  0  0  0  0  0  0  0  0
    2.4109    1.3926    0.0000 C   0  0  0  0  0  0  0  0  0  0  0  0
    2.2178    2.3002    0.0000 C   0  0  0  0  0  0  0  0  0  0  0  0
    2.9073    2.9212    0.0000 C   0  0  0  0  0  0  0  0  0  0  0  0
    3.7898    2.6347    0.0000 C   0  0  0  0  0  0  0  0  0  0  0  0
    3.9829    1.7271    0.0000 C   0  0  0  0  0  0  0  0  0  0  0  0
    3.2935    1.1060    0.0000 C   0  0  0  0  0  0  0  0  0  0  0  0
    0.8038    1.3923    0.0000 C   0  0  0  0  0  0  0  0  0  0  0  0
    1.6077    1.8566    0.0000 C   0  0  0  0  0  0  0  0  0  0  0  0
    1.6076    2.7845    0.0000 C   0  0  0  0  0  0  0  0  0  0  0  0
    0.8035    3.2488    0.0000 C   0  0  0  0  0  0  0  0  0  0  0  0
   -0.0001    2.7849    0.0000 C   0  0  0  0  0  0  0  0  0  0  0  0
   -0.0003    1.8565    0.0000 C   0  0  0  0  0  0  0  0  0  0  0  0
   -0.8041    0.4643    0.0000 C   0  0  0  0  0  0  0  0  0  0  0  0
   -1.6080   -0.0001    0.0000 C   0  0  0  0  0  0  0  0  0  0  0  0
   -1.6079   -0.9280    0.0000 C   0  0  0  0  0  0  0  0  0  0  0  0
   -0.8038   -1.3923    0.0000 C   0  0  0  0  0  0  0  0  0  0  0  0
   -0.0002   -0.9283    0.0000 C   0  0  0  0  0  0  0  0  0  0  0  0
    0.0000    0.0000    0.0000 C   0  0  0  0  0  0  0  0  0  0  0  0
  1  2  2  0  0  0  0
  2 20  1  0  0  0  0
  2  3  1  0  0  0  0
  2  9  1  0  0  0  0
  3  8  2  0  0  0  0
  3  4  1  0  0  0  0
  4  5  2  0  0  0  0
  5  6  1  0  0  0  0
  6  7  2  0  0  0  0
  7  8  1  0  0  0  0
  9 14  2  0  0  0  0
  9 10  1  0  0  0  0
 10 11  2  0  0  0  0
 11 12  1  0  0  0  0
 12 13  2  0  0  0  0
 13 14  1  0  0  0  0
 14 15  1  0  0  0  0
 15 20  2  0  0  0  0
 15 16  1  0  0  0  0
 16 17  2  0  0  0  0
 17 18  1  0  0  0  0
 18 19  2  0  0  0  0
 19 20  1  0  0  0  0
M  END
> <NMREDATA_VERSION>
1.1

> <NMREDATA_LEVEL>
0

> <NMREDATA_SOLVENT>
CDCl3

> <NMREDATA_FORMULA>
C18H13OP

> <NMREDATA_SMILES>
O=P1(c2ccccc2)c2ccccc2-c2c1cccc2

> <NMREDATA_ASSIGNMENT>
P2, 34.30, 2

> <NMREDATA_1D_31P>
Larmor=161.83
34.30, L=P2

$$$$
