
 OpenBabel06112616492D

 39 44  0  0  0  0  0  0  0  0999 V2000
    2.9333   -4.3649    0.0000 C   0  0  0  0  0  0  0  0  0  0  0  0
    3.4222   -3.5181    0.0000 C   0  0  0  0  0  0  0  0  0  0  0  0
    4.4000   -3.5181    0.0000 O   0  0  0  0  0  0  0  0  0  0  0  0
    2.4444   -1.8246    0.0000 C   0  0  0  0  0  0  0  0  0  0  0  0
    2.9333   -0.9778    0.0000 C   0  0  0  0  0  0  0  0  0  0  0  0
    3.9111   -0.9778    0.0000 C   0  0  0  0  0  0  0  0  0  0  0  0
    4.4000   -1.8246    0.0000 C   0  0  0  0  0  0  0  0  0  0  0  0
    5.3778   -1.8246    0.0000 C   0  0  0  0  0  0  0  0  0  0  0  0
    5.8667   -0.9778    0.0000 C   0  0  0  0  0  0  0  0  0  0  0  0
    5.3778   -0.1310    0.0000 C   0  0  0  0  0  0  0  0  0  0  0  0
    4.4000   -0.1310    0.0000 C   0  0  0  0  0  0  0  0  0  0  0  0
    2.4444   -0.1310    0.0000 N   0  0  0  0  0  0  0  0  0  0  0  0
    1.4667   -0.1310    0.0000 C   0  0  0  0  0  0  0  0  0  0  0  0
    0.9778   -0.9778    0.0000 C   0  0  0  0  0  0  0  0  0  0  0  0
    0.0000   -0.9778    0.0000 P   0  0  0  0  0  0  0  0  0  0  0  0
    0.0000   -1.9556    0.0000 O   0  0  0  0  0  0  0  0  0  0  0  0
   -0.9778   -0.9778    0.0000 C   0  0  0  0  0  0  0  0  0  0  0  0
   -1.4667   -0.1310    0.0000 C   0  0  0  0  0  0  0  0  0  0  0  0
   -2.4444   -0.1310    0.0000 C   0  0  0  0  0  0  0  0  0  0  0  0
   -2.9333   -0.9778    0.0000 C   0  0  0  0  0  0  0  0  0  0  0  0
   -2.4444   -1.8246    0.0000 C   0  0  0  0  0  0  0  0  0  0  0  0
   -1.4667   -1.8246    0.0000 C   0  0  0  0  0  0  0  0  0  0  0  0
    0.0000    0.0000    0.0000 C   0  0  0  0  0  0  0  0  0  0  0  0
    0.8468    0.4889    0.0000 C   0  0  0  0  0  0  0  0  0  0  0  0
    0.8468    1.4667    0.0000 C   0  0  0  0  0  0  0  0  0  0  0  0
    0.0000    1.9556    0.0000 C   0  0  0  0  0  0  0  0  0  0  0  0
   -0.8468    1.4667    0.0000 C   0  0  0  0  0  0  0  0  0  0  0  0
   -0.8468    0.4889    0.0000 C   0  0  0  0  0  0  0  0  0  0  0  0
    1.4667   -1.8246    0.0000 C   0  0  0  0  0  0  0  0  0  0  0  0
    0.9778   -2.6713    0.0000 C   0  0  0  0  0  0  0  0  0  0  0  0
    0.0054   -2.7735    0.0000 C   0  0  0  0  0  0  0  0  0  0  0  0
   -0.1979   -3.7300    0.0000 C   0  0  0  0  0  0  0  0  0  0  0  0
    0.6488   -4.2188    0.0000 C   0  0  0  0  0  0  0  0  0  0  0  0
    1.3755   -3.5646    0.0000 S   0  0  0  0  0  0  0  0  0  0  0  0
    3.4222   -5.2117    0.0000 C   0  0  0  0  0  0  0  0  0  0  0  0
    2.9333   -6.0585    0.0000 C   0  0  0  0  0  0  0  0  0  0  0  0
    1.9556   -6.0585    0.0000 C   0  0  0  0  0  0  0  0  0  0  0  0
    1.4667   -5.2117    0.0000 C   0  0  0  0  0  0  0  0  0  0  0  0
    1.9556   -4.3649    0.0000 C   0  0  0  0  0  0  0  0  0  0  0  0
  1 39  2  0  0  0  0
  1  2  1  0  0  0  0
  1 35  1  0  0  0  0
  2  3  2  0  0  0  0
  2  4  1  0  0  0  0
  4 29  2  0  0  0  0
  4  5  1  0  0  0  0
  5  6  1  0  0  0  0
  5 12  2  0  0  0  0
  6 11  2  0  0  0  0
  6  7  1  0  0  0  0
  7  8  2  0  0  0  0
  8  9  1  0  0  0  0
  9 10  2  0  0  0  0
 10 11  1  0  0  0  0
 12 13  1  0  0  0  0
 13 14  2  0  0  0  0
 14 15  1  0  0  0  0
 14 29  1  0  0  0  0
 15 16  2  0  0  0  0
 15 17  1  0  0  0  0
 15 23  1  0  0  0  0
 17 22  2  0  0  0  0
 17 18  1  0  0  0  0
 18 19  2  0  0  0  0
 19 20  1  0  0  0  0
 20 21  2  0  0  0  0
 21 22  1  0  0  0  0
 23 28  2  0  0  0  0
 23 24  1  0  0  0  0
 24 25  2  0  0  0  0
 25 26  1  0  0  0  0
 26 27  2  0  0  0  0
 27 28  1  0  0  0  0
 29 30  1  0  0  0  0
 30 34  1  0  0  0  0
 30 31  2  0  0  0  0
 31 32  1  0  0  0  0
 32 33  2  0  0  0  0
 33 34  1  0  0  0  0
 35 36  2  0  0  0  0
 36 37  1  0  0  0  0
 37 38  2  0  0  0  0
 38 39  1  0  0  0  0
M  END
> <NMREDATA_VERSION>
1.1

> <NMREDATA_LEVEL>
0

> <NMREDATA_SOLVENT>
CDCl3

> <NMREDATA_FORMULA>
C34H24NO2PS

> <NMREDATA_SMILES>
O=C(c1c(ncc(c1c1cccs1)P(=O)(c1ccccc1)c1ccccc1)c1ccccc1)c1ccccc1

> <NMREDATA_ASSIGNMENT>
P15, 25.77, 15

> <NMREDATA_1D_31P>
Larmor=202
25.77, L=P15

$$$$
