
 OpenBabel06112616432D

 31 33  0  0  1  0  0  0  0  0999 V2000
   -0.1138    1.2677    0.0000 C   0  0  0  0  0  0  0  0  0  0  0  0
   -0.0093    2.2622    0.0000 C   0  0  0  0  0  0  0  0  0  0  0  0
   -0.8183    2.8500    0.0000 O   0  0  0  0  0  0  0  0  0  0  0  0
   -1.7319    2.4432    0.0000 C   0  0  0  0  0  0  0  0  0  0  0  0
   -2.5409    3.0310    0.0000 O   0  0  0  0  0  0  0  0  0  0  0  0
   -1.8364    1.4487    0.0000 C   0  0  0  0  0  0  0  0  0  0  0  0
   -1.0933    0.7796    0.0000 C   0  0  0  0  0  0  0  0  0  0  0  0
   -1.5000   -0.1340    0.0000 C   0  0  0  0  0  0  0  0  0  0  0  0
   -1.0000   -1.0000    0.0000 C   0  0  3  0  0  0  0  0  0  0  0  0
   -1.5000   -1.8660    0.0000 C   0  0  0  0  0  0  0  0  0  0  0  0
   -1.0000   -2.7321    0.0000 C   0  0  0  0  0  0  0  0  0  0  0  0
   -1.5000   -3.5981    0.0000 C   0  0  0  0  0  0  0  0  0  0  0  0
   -2.5000   -3.5981    0.0000 C   0  0  0  0  0  0  0  0  0  0  0  0
   -3.0000   -2.7321    0.0000 C   0  0  0  0  0  0  0  0  0  0  0  0
   -2.5000   -1.8660    0.0000 C   0  0  0  0  0  0  0  0  0  0  0  0
    0.0000   -1.0000    0.0000 P   0  0  0  0  0  0  0  0  0  0  0  0
    0.0000   -2.0000    0.0000 O   0  0  0  0  0  0  0  0  0  0  0  0
    1.0000   -1.0000    0.0000 O   0  0  0  0  0  0  0  0  0  0  0  0
    1.5000   -1.8660    0.0000 C   0  0  0  0  0  0  0  0  0  0  0  0
    1.0000   -2.7321    0.0000 C   0  0  0  0  0  0  0  0  0  0  0  0
    0.0000    0.0000    0.0000 O   0  0  0  0  0  0  0  0  0  0  0  0
    0.8660    0.5000    0.0000 C   0  0  0  0  0  0  0  0  0  0  0  0
    0.8660    1.5000    0.0000 C   0  0  0  0  0  0  0  0  0  0  0  0
   -2.4945   -0.0294    0.0000 O   0  0  0  0  0  0  0  0  0  0  0  0
   -2.7024    0.9487    0.0000 C   0  0  0  0  0  0  0  0  0  0  0  0
   -3.6160    1.3554    0.0000 C   0  0  0  0  0  0  0  0  0  0  0  0
   -4.4250    0.7677    0.0000 C   0  0  0  0  0  0  0  0  0  0  0  0
   -5.3385    1.1744    0.0000 C   0  0  0  0  0  0  0  0  0  0  0  0
   -5.4431    2.1689    0.0000 C   0  0  0  0  0  0  0  0  0  0  0  0
   -4.6341    2.7567    0.0000 C   0  0  0  0  0  0  0  0  0  0  0  0
   -3.7205    2.3500    0.0000 C   0  0  0  0  0  0  0  0  0  0  0  0
  1  2  1  0  0  0  0
  2  3  1  0  0  0  0
  3  4  1  0  0  0  0
  4  5  2  0  0  0  0
  4  6  1  0  0  0  0
  6 25  2  0  0  0  0
  6  7  1  0  0  0  0
  7  8  2  0  0  0  0
  8  9  1  0  0  0  0
  8 24  1  0  0  0  0
  9 10  1  0  0  0  0
  9 16  1  0  0  0  0
 10 15  2  0  0  0  0
 10 11  1  0  0  0  0
 11 12  2  0  0  0  0
 12 13  1  0  0  0  0
 13 14  2  0  0  0  0
 14 15  1  0  0  0  0
 16 17  2  0  0  0  0
 16 18  1  0  0  0  0
 16 21  1  0  0  0  0
 18 19  1  0  0  0  0
 19 20  1  0  0  0  0
 21 22  1  0  0  0  0
 22 23  1  0  0  0  0
 24 25  1  0  0  0  0
 25 26  1  0  0  0  0
 26 31  2  0  0  0  0
 26 27  1  0  0  0  0
 27 28  2  0  0  0  0
 28 29  1  0  0  0  0
 29 30  2  0  0  0  0
 30 31  1  0  0  0  0
M  END
> <NMREDATA_VERSION>
1.1

> <NMREDATA_LEVEL>
0

> <NMREDATA_SOLVENT>
CDCl3

> <NMREDATA_FORMULA>
C24H27O6P

> <NMREDATA_SMILES>
CCOC(=O)c1cc(oc1c1ccccc1)C(P(=O)(OCC)OCC)c1ccccc1

> <NMREDATA_ASSIGNMENT>
P16, 21.30, 16

> <NMREDATA_1D_31P>
Larmor=162
21.30, L=P16

$$$$
