
 OpenBabel06112616472D

 29 31  0  0  0  0  0  0  0  0999 V2000
    0.5000   -1.3390    0.0000 C    0  0  0  0  0  0  0  0  0  0  0  0
    1.4688   -1.3390    0.0000 C    0  0  0  0  0  0  0  0  0  0  0  0
    1.9531   -0.5000    0.0000 C    0  0  0  0  0  0  0  0  0  0  0  0
    2.9219   -0.5000    0.0000 C    0  0  0  0  0  0  0  0  0  0  0  0
    3.4063   -1.3390    0.0000 C    0  0  0  0  0  0  0  0  0  0  0  0
    2.9219   -2.1779    0.0000 C    0  0  0  0  0  0  0  0  0  0  0  0
    3.8906   -3.8558    0.0000 C    0  0  0  0  0  0  0  0  0  0  0  0
    4.8594   -3.8558    0.0000 P    0  3  0  0  0  0  0  0  0  0  0  0
    4.8594   -4.8246    0.0000 C    0  0  0  0  0  0  0  0  0  0  0  0
    5.6983   -5.3090    0.0000 C    0  0  0  0  0  0  0  0  0  0  0  0
    5.6983   -6.2777    0.0000 C    0  0  0  0  0  0  0  0  0  0  0  0
    4.8594   -6.7621    0.0000 C    0  0  0  0  0  0  0  0  0  0  0  0
    4.0204   -6.2777    0.0000 C    0  0  0  0  0  0  0  0  0  0  0  0
    4.0204   -5.3090    0.0000 C    0  0  0  0  0  0  0  0  0  0  0  0
    5.8281   -3.8558    0.0000 C    0  0  0  0  0  0  0  0  0  0  0  0
    6.3125   -3.0169    0.0000 C    0  0  0  0  0  0  0  0  0  0  0  0
    7.2813   -3.0169    0.0000 C    0  0  0  0  0  0  0  0  0  0  0  0
    7.7656   -3.8558    0.0000 C    0  0  0  0  0  0  0  0  0  0  0  0
    7.2813   -4.6948    0.0000 C    0  0  0  0  0  0  0  0  0  0  0  0
    6.3125   -4.6948    0.0000 C    0  0  0  0  0  0  0  0  0  0  0  0
    4.8594   -2.8871    0.0000 C    0  0  0  0  0  0  0  0  0  0  0  0
    4.0204   -2.4027    0.0000 C    0  0  0  0  0  0  0  0  0  0  0  0
    4.0204   -1.4340    0.0000 C    0  0  0  0  0  0  0  0  0  0  0  0
    4.8594   -0.9496    0.0000 C    0  0  0  0  0  0  0  0  0  0  0  0
    5.6983   -1.4340    0.0000 C    0  0  0  0  0  0  0  0  0  0  0  0
    5.6983   -2.4027    0.0000 C    0  0  0  0  0  0  0  0  0  0  0  0
    1.9531   -2.1779    0.0000 C    0  0  0  0  0  0  0  0  0  0  0  0
    1.4688   -3.0169    0.0000 Br   0  0  0  0  0  0  0  0  0  0  0  0
    8.7656   -0.5000    0.0000 Br   0  5  0  0  0  0  0  0  0  0  0  0
  1  2  1  0  0  0  0
  2 27  2  0  0  0  0
  2  3  1  0  0  0  0
  3  4  2  0  0  0  0
  4  5  1  0  0  0  0
  5  6  2  0  0  0  0
  6  7  1  0  0  0  0
  6 27  1  0  0  0  0
  7  8  1  0  0  0  0
  8  9  1  0  0  0  0
  8 15  1  0  0  0  0
  8 21  1  0  0  0  0
  9 14  2  0  0  0  0
  9 10  1  0  0  0  0
 10 11  2  0  0  0  0
 11 12  1  0  0  0  0
 12 13  2  0  0  0  0
 13 14  1  0  0  0  0
 15 20  2  0  0  0  0
 15 16  1  0  0  0  0
 16 17  2  0  0  0  0
 17 18  1  0  0  0  0
 18 19  2  0  0  0  0
 19 20  1  0  0  0  0
 21 26  2  0  0  0  0
 21 22  1  0  0  0  0
 22 23  2  0  0  0  0
 23 24  1  0  0  0  0
 24 25  2  0  0  0  0
 25 26  1  0  0  0  0
 27 28  1  0  0  0  0
M  END
> <NMREDATA_VERSION>
1.1

> <NMREDATA_LEVEL>
0

> <NMREDATA_SOLVENT>
CDCl3

> <NMREDATA_FORMULA>
C26H23Br2P

> <NMREDATA_SMILES>
Brc1c(C)cccc1CP(c1ccccc1)(c1ccccc1)c1ccccc1.Br

> <NMREDATA_ASSIGNMENT>
P8, 22.70, 8

> <NMREDATA_1D_31P>
Larmor=162
22.70, L=P8

$$$$
