
 OpenBabel06112616432D

 24 27  0  0  0  0  0  0  0  0999 V2000
   -1.6750    3.0878    0.0000 N   0  0  0  0  0  0  0  0  0  0  0  0
   -2.6261    2.7788    0.0000 C   0  0  0  0  0  0  0  0  0  0  0  0
   -2.8340    1.8006    0.0000 C   0  0  0  0  0  0  0  0  0  0  0  0
   -3.7851    1.4916    0.0000 C   0  0  0  0  0  0  0  0  0  0  0  0
   -4.5282    2.1607    0.0000 C   0  0  0  0  0  0  0  0  0  0  0  0
   -4.3203    3.1389    0.0000 C   0  0  0  0  0  0  0  0  0  0  0  0
   -3.3692    3.4479    0.0000 C   0  0  0  0  0  0  0  0  0  0  0  0
   -1.3660    4.0388    0.0000 N   0  0  0  0  0  0  0  0  0  0  0  0
   -0.3660    4.0388    0.0000 N   0  0  0  0  0  0  0  0  0  0  0  0
   -0.0570    3.0878    0.0000 C   0  0  0  0  0  0  0  0  0  0  0  0
   -0.8660    2.5000    0.0000 C   0  0  0  0  0  0  0  0  0  0  0  0
   -0.8660    1.5000    0.0000 P   0  0  0  0  0  0  0  0  0  0  0  0
   -1.7321    1.0000    0.0000 C   0  0  0  0  0  0  0  0  0  0  0  0
   -1.7321    0.0000    0.0000 C   0  0  0  0  0  0  0  0  0  0  0  0
   -2.5981   -0.5000    0.0000 C   0  0  0  0  0  0  0  0  0  0  0  0
   -3.4641    0.0000    0.0000 C   0  0  0  0  0  0  0  0  0  0  0  0
   -3.4641    1.0000    0.0000 C   0  0  0  0  0  0  0  0  0  0  0  0
   -2.5981    1.5000    0.0000 C   0  0  0  0  0  0  0  0  0  0  0  0
    0.0000    1.0000    0.0000 C   0  0  0  0  0  0  0  0  0  0  0  0
    0.8660    1.5000    0.0000 C   0  0  0  0  0  0  0  0  0  0  0  0
    1.7321    1.0000    0.0000 C   0  0  0  0  0  0  0  0  0  0  0  0
    1.7321    0.0000    0.0000 C   0  0  0  0  0  0  0  0  0  0  0  0
    0.8660   -0.5000    0.0000 C   0  0  0  0  0  0  0  0  0  0  0  0
    0.0000    0.0000    0.0000 C   0  0  0  0  0  0  0  0  0  0  0  0
  1 11  1  0  0  0  0
  1  2  1  0  0  0  0
  1  8  1  0  0  0  0
  2  7  2  0  0  0  0
  2  3  1  0  0  0  0
  3  4  2  0  0  0  0
  4  5  1  0  0  0  0
  5  6  2  0  0  0  0
  6  7  1  0  0  0  0
  8  9  2  0  0  0  0
  9 10  1  0  0  0  0
 10 11  2  0  0  0  0
 11 12  1  0  0  0  0
 12 13  1  0  0  0  0
 12 19  1  0  0  0  0
 13 18  1  0  0  0  0
 13 14  1  0  0  0  0
 14 15  1  0  0  0  0
 15 16  1  0  0  0  0
 16 17  1  0  0  0  0
 17 18  1  0  0  0  0
 19 24  1  0  0  0  0
 19 20  1  0  0  0  0
 20 21  1  0  0  0  0
 21 22  1  0  0  0  0
 22 23  1  0  0  0  0
 23 24  1  0  0  0  0
M  END
> <NMREDATA_VERSION>
1.1

> <NMREDATA_LEVEL>
0

> <NMREDATA_SOLVENT>
CDCl3

> <NMREDATA_FORMULA>
C20H28N3P

> <NMREDATA_SMILES>
C1CCC(CC1)P(c1cnnn1c1ccccc1)C1CCCCC1

> <NMREDATA_ASSIGNMENT>
P12, -30.22, 12

> <NMREDATA_1D_31P>
Larmor=121
-30.22, L=P12

$$$$
