
 OpenBabel06112616472D

 25 24  0  0  1  0  0  0  0  0999 V2000
    3.7359   -5.5000    0.0000 C    0  0  0  0  0  0  0  0  0  0  0  0
    4.6019   -6.0000    0.0000 F    0  0  0  0  0  0  0  0  0  0  0  0
    2.7359   -5.5000    0.0000 F    0  0  0  0  0  0  0  0  0  0  0  0
    3.2359   -6.3660    0.0000 F    0  0  0  0  0  0  0  0  0  0  0  0
    3.7359   -4.5000    0.0000 C    0  0  3  0  0  0  0  0  0  0  0  0
    4.6019   -4.0000    0.0000 C    0  0  0  0  0  0  0  0  0  0  0  0
    4.6019   -3.0000    0.0000 O    0  0  0  0  0  0  0  0  0  0  0  0
    5.4679   -2.5000    0.0000 C    0  0  0  0  0  0  0  0  0  0  0  0
    5.4679   -1.5000    0.0000 P    0  0  3  0  0  0  0  0  0  0  0  0
    6.4679   -1.5000    0.0000 O    0  0  0  0  0  0  0  0  0  0  0  0
    5.4679   -0.5000    0.0000 O    0  5  0  0  0  0  0  0  0  0  0  0
    4.4679   -1.5000    0.0000 O    0  0  0  0  0  0  0  0  0  0  0  0
    3.9679   -0.6340    0.0000 Na   0  0  0  0  0  0  0  0  0  0  0  0
    2.8698   -4.0000    0.0000 N    0  0  0  0  0  0  0  0  0  0  0  0
    1.9563   -4.4067    0.0000 C    0  0  0  0  0  0  0  0  0  0  0  0
    1.2872   -3.6636    0.0000 N    0  0  0  0  0  0  0  0  0  0  0  0
    1.7872   -2.7976    0.0000 C    0  0  0  0  0  0  0  0  0  0  0  0
    1.4781   -1.8465    0.0000 C    0  0  0  0  0  0  0  0  0  0  0  0
    0.5000   -1.6386    0.0000 O    0  0  0  0  0  0  0  0  0  0  0  0
    2.1473   -1.1034    0.0000 N    0  0  0  0  0  0  0  0  0  0  0  0
    3.1254   -1.3113    0.0000 C    0  0  0  0  0  0  0  0  0  0  0  0
    3.4344   -2.2623    0.0000 N    0  0  0  0  0  0  0  0  0  0  0  0
    2.7653   -3.0055    0.0000 C    0  0  0  0  0  0  0  0  0  0  0  0
    7.4679   -0.5000    0.0000 Na   0  3  0  0  0  0  0  0  0  0  0  0
    9.4679   -0.5000    0.0000 Na   0  3  0  0  0  0  0  0  0  0  0  0
  1  2  1  0  0  0  0
  1  3  1  0  0  0  0
  1  4  1  0  0  0  0
  1  5  1  0  0  0  0
  5  6  1  0  0  0  0
  5 14  1  0  0  0  0
  6  7  1  0  0  0  0
  7  8  1  0  0  0  0
  8  9  1  0  0  0  0
  9 10  2  0  0  0  0
  9 11  1  0  0  0  0
  9 12  1  0  0  0  0
 12 13  1  0  0  0  0
 14 23  1  0  0  0  0
 14 15  1  0  0  0  0
 15 16  2  0  0  0  0
 16 17  1  0  0  0  0
 17 23  2  0  0  0  0
 17 18  1  0  0  0  0
 18 19  2  0  0  0  0
 18 20  1  0  0  0  0
 20 21  1  0  0  0  0
 21 22  2  0  0  0  0
 22 23  1  0  0  0  0
M  END
> <NMREDATA_VERSION>
1.1

> <NMREDATA_LEVEL>
0

> <NMREDATA_SOLVENT>
D2O

> <NMREDATA_FORMULA>
C9H8F3N4Na3O5P

> <NMREDATA_SMILES>
[Na]OP(=O)(COCC(C(F)(F)F)n1cnc2c1nc[nH]c2=O)O.[NaH].[NaH]

> <NMREDATA_ASSIGNMENT>
P9, 14.46, 9

> <NMREDATA_1D_31P>
Larmor=162
14.46, L=P9

$$$$
