
 OpenBabel06112616492D

 43 50  0  0  1  0  0  0  0  0999 V2000
    1.2780    1.4997    0.0000 C   0  0  0  0  0  0  0  0  0  0  0  0
    1.5695    0.6025    0.0000 C   0  0  0  0  0  0  0  0  0  0  0  0
    2.2706   -0.0288    0.0000 C   0  0  0  0  0  0  0  0  0  0  0  0
    2.4667    0.8940    0.0000 C   0  0  0  0  0  0  0  0  0  0  0  0
    0.9382   -0.0986    0.0000 P   0  0  3  0  0  0  0  0  0  0  0  0
    1.1344   -1.0214    0.0000 C   0  0  0  0  0  0  0  0  0  0  0  0
    0.3174   -1.4931    0.0000 C   0  0  0  0  0  0  0  0  0  0  0  0
    0.3174   -2.4365    0.0000 C   0  0  0  0  0  0  0  0  0  0  0  0
   -0.4996   -2.9082    0.0000 C   0  0  0  0  0  0  0  0  0  0  0  0
   -0.4996   -3.8516    0.0000 C   0  0  0  0  0  0  0  0  0  0  0  0
   -1.3166   -4.3233    0.0000 C   0  0  0  0  0  0  0  0  0  0  0  0
   -1.3166   -5.2667    0.0000 C   0  0  0  0  0  0  0  0  0  0  0  0
   -0.4996   -5.7384    0.0000 C   0  0  0  0  0  0  0  0  0  0  0  0
    0.3174   -5.2667    0.0000 C   0  0  0  0  0  0  0  0  0  0  0  0
    0.3174   -4.3233    0.0000 C   0  0  0  0  0  0  0  0  0  0  0  0
   -2.1336   -3.8516    0.0000 C   0  0  0  0  0  0  0  0  0  0  0  0
   -2.1336   -2.9082    0.0000 C   0  0  0  0  0  0  0  0  0  0  0  0
   -1.3166   -2.4365    0.0000 C   0  0  0  0  0  0  0  0  0  0  0  0
   -1.3166   -1.4931    0.0000 C   0  0  0  0  0  0  0  0  0  0  0  0
   -2.1336   -1.0214    0.0000 C   0  0  0  0  0  0  0  0  0  0  0  0
   -2.9507   -1.4931    0.0000 C   0  0  0  0  0  0  0  0  0  0  0  0
   -2.9507   -2.4365    0.0000 C   0  0  0  0  0  0  0  0  0  0  0  0
    1.1344   -2.9082    0.0000 C   0  0  0  0  0  0  0  0  0  0  0  0
    1.9514   -2.4365    0.0000 C   0  0  0  0  0  0  0  0  0  0  0  0
    1.9514   -1.4931    0.0000 C   0  0  0  0  0  0  0  0  0  0  0  0
    5.2194    0.3937    0.0000 C   0  0  0  0  0  0  0  0  0  0  0  0
    5.2194    1.3371    0.0000 C   0  0  0  0  0  0  0  0  0  0  0  0
    6.0364    1.8088    0.0000 C   0  0  0  0  0  0  0  0  0  0  0  0
    6.0364    2.7522    0.0000 C   0  0  0  0  0  0  0  0  0  0  0  0
    5.2194    3.2239    0.0000 C   0  0  0  0  0  0  0  0  0  0  0  0
    4.4024    2.7522    0.0000 C   0  0  0  0  0  0  0  0  0  0  0  0
    4.4024    1.8088    0.0000 C   0  0  0  0  0  0  0  0  0  0  0  0
    6.8534    1.3371    0.0000 C   0  0  0  0  0  0  0  0  0  0  0  0
    6.8534    0.3937    0.0000 C   0  0  0  0  0  0  0  0  0  0  0  0
    6.0364   -0.0780    0.0000 C   0  0  0  0  0  0  0  0  0  0  0  0
    6.0364   -1.0214    0.0000 C   0  0  0  0  0  0  0  0  0  0  0  0
    6.8534   -1.4931    0.0000 C   0  0  0  0  0  0  0  0  0  0  0  0
    7.6704   -1.0214    0.0000 C   0  0  0  0  0  0  0  0  0  0  0  0
    7.6704   -0.0780    0.0000 C   0  0  0  0  0  0  0  0  0  0  0  0
   -0.3837   -0.8618    0.0000 O   0  0  0  0  0  0  0  0  0  0  0  0
    0.0000    0.0000    0.0000 C   0  0  2  0  0  0  0  0  0  0  0  0
   -0.4717    0.8170    0.0000 C   0  0  0  0  0  0  0  0  0  0  0  0
    0.0000    1.6340    0.0000 O   0  0  0  0  0  0  0  0  0  0  0  0
  1  2  1  0  0  0  0
  2  3  1  0  0  0  0
  2  4  1  0  0  0  0
  2  5  1  0  0  0  0
  5 41  1  0  0  0  0
  5  6  1  0  0  0  0
  6 25  2  0  0  0  0
  6  7  1  0  0  0  0
  7  8  2  0  0  0  0
  7 40  1  0  0  0  0
  8  9  1  0  0  0  0
  8 23  1  0  0  0  0
  9 18  2  0  0  0  0
  9 10  1  0  0  0  0
 10 15  2  0  0  0  0
 10 11  1  0  0  0  0
 11 12  2  0  0  0  0
 11 16  1  0  0  0  0
 12 13  1  0  0  0  0
 13 14  2  0  0  0  0
 14 15  1  0  0  0  0
 16 17  2  0  0  0  0
 17 22  1  0  0  0  0
 17 18  1  0  0  0  0
 18 19  1  0  0  0  0
 19 20  2  0  0  0  0
 20 21  1  0  0  0  0
 21 22  2  0  0  0  0
 23 24  2  0  0  0  0
 24 25  1  0  0  0  0
 25 26  1  0  0  0  0
 26 35  2  0  0  0  0
 26 27  1  0  0  0  0
 27 32  2  0  0  0  0
 27 28  1  0  0  0  0
 28 29  2  0  0  0  0
 28 33  1  0  0  0  0
 29 30  1  0  0  0  0
 30 31  2  0  0  0  0
 31 32  1  0  0  0  0
 33 34  2  0  0  0  0
 34 39  1  0  0  0  0
 34 35  1  0  0  0  0
 35 36  1  0  0  0  0
 36 37  2  0  0  0  0
 37 38  1  0  0  0  0
 38 39  2  0  0  0  0
 40 41  1  0  0  0  0
 41 42  1  6  0  0  0
 42 43  1  0  0  0  0
M  END
> <NMREDATA_VERSION>
1.1

> <NMREDATA_LEVEL>
0

> <NMREDATA_SOLVENT>
CD3COCD3

> <NMREDATA_FORMULA>
C40H33O2P

> <NMREDATA_SMILES>
OC[C@H]1Oc2c(P1C(C)(C)C)c(ccc2c1c2ccccc2cc2c1cccc2)c1c2ccccc2cc2c1cccc2

> <NMREDATA_ASSIGNMENT>
P5, 8.40, 5

> <NMREDATA_1D_31P>
Larmor=243
8.40, L=P5

$$$$
