
 OpenBabel06112616452D

 50 55  0  0  1  0  0  0  0  0999 V2000
    0.0000   -4.9107    0.0000 C   0  0  0  0  0  0  0  0  0  0  0  0
   -0.8506   -4.4196    0.0000 C   0  0  0  0  0  0  0  0  0  0  0  0
   -0.8506   -3.4375    0.0000 C   0  0  0  0  0  0  0  0  0  0  0  0
    0.0000   -2.9464    0.0000 C   0  0  0  0  0  0  0  0  0  0  0  0
    0.0000   -0.9821    0.0000 P   0  0  0  0  0  0  0  0  0  0  0  0
    0.9821   -0.9821    0.0000 C   0  0  0  0  0  0  0  0  0  0  0  0
    1.4732   -0.1316    0.0000 C   0  0  0  0  0  0  0  0  0  0  0  0
    2.4554   -0.1316    0.0000 C   0  0  0  0  0  0  0  0  0  0  0  0
    2.9464   -0.9821    0.0000 C   0  0  0  0  0  0  0  0  0  0  0  0
    2.4554   -1.8327    0.0000 C   0  0  0  0  0  0  0  0  0  0  0  0
    1.4732   -1.8327    0.0000 C   0  0  0  0  0  0  0  0  0  0  0  0
   -0.9821   -0.9821    0.0000 C   0  0  0  0  0  0  0  0  0  0  0  0
   -1.5594   -0.1876    0.0000 C   0  0  0  0  0  0  0  0  0  0  0  0
   -1.2559    0.7465    0.0000 C   0  0  0  0  0  0  0  0  0  0  0  0
   -0.2953    0.9507    0.0000 C   0  0  0  0  0  0  0  0  0  0  0  0
    0.0082    1.8848    0.0000 C   0  0  0  0  0  0  0  0  0  0  0  0
   -0.6489    2.6146    0.0000 C   0  0  0  0  0  0  0  0  0  0  0  0
   -1.6096    2.4104    0.0000 C   0  0  0  0  0  0  0  0  0  0  0  0
   -1.9131    1.4764    0.0000 C   0  0  0  0  0  0  0  0  0  0  0  0
   -2.4935   -0.4911    0.0000 C   0  0  3  0  0  0  0  0  0  0  0  0
   -2.3908    0.4857    0.0000 C   0  0  0  0  0  0  0  0  0  0  0  0
   -3.1854    1.0630    0.0000 C   0  0  0  0  0  0  0  0  0  0  0  0
   -3.0828    2.0397    0.0000 O   0  0  0  0  0  0  0  0  0  0  0  0
   -3.8773    2.6170    0.0000 C   0  0  0  0  0  0  0  0  0  0  0  0
   -4.0826    0.6635    0.0000 C   0  0  0  0  0  0  0  0  0  0  0  0
   -4.8772    1.2408    0.0000 O   0  0  0  0  0  0  0  0  0  0  0  0
   -4.1853   -0.3133    0.0000 C   0  0  0  0  0  0  0  0  0  0  0  0
   -5.0825   -0.7127    0.0000 O   0  0  0  0  0  0  0  0  0  0  0  0
   -5.1852   -1.6895    0.0000 C   0  0  0  0  0  0  0  0  0  0  0  0
   -3.3907   -0.8905    0.0000 C   0  0  0  0  0  0  0  0  0  0  0  0
   -2.4935   -1.4732    0.0000 N   0  0  0  0  0  0  0  0  0  0  0  0
   -3.2881   -2.0505    0.0000 C   0  0  3  0  0  0  0  0  0  0  0  0
   -4.1853   -1.6510    0.0000 C   0  0  0  0  0  0  0  0  0  0  0  0
   -4.2880   -0.6743    0.0000 O   0  0  0  0  0  0  0  0  0  0  0  0
   -4.9799   -2.2283    0.0000 N   0  0  0  0  0  0  0  0  0  0  0  0
   -5.8771   -1.8288    0.0000 C   0  0  0  0  0  0  0  0  0  0  0  0
   -6.8539   -1.9315    0.0000 C   0  0  0  0  0  0  0  0  0  0  0  0
   -6.2766   -2.7261    0.0000 C   0  0  0  0  0  0  0  0  0  0  0  0
   -5.9798   -0.8521    0.0000 C   0  0  0  0  0  0  0  0  0  0  0  0
   -3.1854   -3.0273    0.0000 C   0  0  0  0  0  0  0  0  0  0  0  0
   -2.2882   -3.4267    0.0000 C   0  0  0  0  0  0  0  0  0  0  0  0
   -2.1855   -4.4035    0.0000 C   0  0  0  0  0  0  0  0  0  0  0  0
   -2.9801   -4.9808    0.0000 C   0  0  0  0  0  0  0  0  0  0  0  0
   -3.8773   -4.5813    0.0000 C   0  0  0  0  0  0  0  0  0  0  0  0
   -3.9800   -3.6046    0.0000 C   0  0  0  0  0  0  0  0  0  0  0  0
   -1.5594   -1.7767    0.0000 C   0  0  0  0  0  0  0  0  0  0  0  0
   -1.2559   -2.7108    0.0000 O   0  0  0  0  0  0  0  0  0  0  0  0
    0.0000    0.0000    0.0000 O   0  0  0  0  0  0  0  0  0  0  0  0
    0.8506   -3.4375    0.0000 C   0  0  0  0  0  0  0  0  0  0  0  0
    0.8506   -4.4196    0.0000 C   0  0  0  0  0  0  0  0  0  0  0  0
  1 50  2  0  0  0  0
  1  2  1  0  0  0  0
  2  3  2  0  0  0  0
  3  4  1  0  0  0  0
  4  5  1  0  0  0  0
  4 49  2  0  0  0  0
  5  6  1  0  0  0  0
  5 12  1  0  0  0  0
  5 48  2  0  0  0  0
  6 11  2  0  0  0  0
  6  7  1  0  0  0  0
  7  8  2  0  0  0  0
  8  9  1  0  0  0  0
  9 10  2  0  0  0  0
 10 11  1  0  0  0  0
 12 46  1  0  0  0  0
 12 13  2  0  0  0  0
 13 14  1  0  0  0  0
 13 20  1  0  0  0  0
 14 19  2  0  0  0  0
 14 15  1  0  0  0  0
 15 16  2  0  0  0  0
 16 17  1  0  0  0  0
 17 18  2  0  0  0  0
 18 19  1  0  0  0  0
 20 30  1  0  0  0  0
 20 21  1  0  0  0  0
 20 31  1  0  0  0  0
 21 22  2  0  0  0  0
 22 23  1  0  0  0  0
 22 25  1  0  0  0  0
 23 24  1  0  0  0  0
 25 26  2  0  0  0  0
 25 27  1  0  0  0  0
 27 28  1  0  0  0  0
 27 30  2  0  0  0  0
 28 29  1  0  0  0  0
 31 32  1  0  0  0  0
 31 46  1  0  0  0  0
 32 33  1  0  0  0  0
 32 40  1  0  0  0  0
 33 34  2  0  0  0  0
 33 35  1  0  0  0  0
 35 36  1  0  0  0  0
 36 37  1  0  0  0  0
 36 38  1  0  0  0  0
 36 39  1  0  0  0  0
 40 45  2  0  0  0  0
 40 41  1  0  0  0  0
 41 42  2  0  0  0  0
 42 43  1  0  0  0  0
 43 44  2  0  0  0  0
 44 45  1  0  0  0  0
 46 47  2  0  0  0  0
 49 50  1  0  0  0  0
M  END
> <NMREDATA_VERSION>
1.1

> <NMREDATA_LEVEL>
0

> <NMREDATA_SOLVENT>
CDCl3

> <NMREDATA_FORMULA>
C41H39N2O6P

> <NMREDATA_SMILES>
COC1=CC2(C=C(C1=O)OC)N(C(C(=O)NC(C)(C)C)c1ccccc1)C(=O)C(=C2c1ccccc1)P(=O)(c1ccccc1)c1ccccc1

> <NMREDATA_ASSIGNMENT>
P5, 18.00, 5

> <NMREDATA_1D_31P>
Larmor=162
18.00, L=P5

$$$$
