
 OpenBabel06112616462D

 35 40  0  0  1  0  0  0  0  0999 V2000
   -0.1429   -0.0975    0.0000 C    0  0  0  0  0  0  0  0  0  0  0  0
    0.8571   -0.0975    0.0000 C    0  0  1  0  0  0  0  0  0  0  0  0
    1.8448   -0.2539    0.0000 O    0  0  0  0  0  0  0  0  0  0  0  0
    2.2988    0.6371    0.0000 C    0  0  0  0  0  0  0  0  0  0  0  0
    3.2647    0.8959    0.0000 C    0  0  0  0  0  0  0  0  0  0  0  0
    3.5235    1.8618    0.0000 C    0  0  0  0  0  0  0  0  0  0  0  0
    4.4894    2.1206    0.0000 Br   0  0  0  0  0  0  0  0  0  0  0  0
    2.8164    2.5689    0.0000 C    0  0  0  0  0  0  0  0  0  0  0  0
    1.8505    2.3101    0.0000 C    0  0  0  0  0  0  0  0  0  0  0  0
    1.5917    1.3442    0.0000 C    0  0  0  0  0  0  0  0  0  0  0  0
    0.7007    0.8902    0.0000 C    0  0  1  0  0  0  0  0  0  0  0  0
    0.5442    1.8779    0.0000 O    0  0  0  0  0  0  0  0  0  0  0  0
   -0.2870    1.0466    0.0000 C    0  0  0  0  0  0  0  0  0  0  0  0
   -0.7410    1.9376    0.0000 C    0  0  0  0  0  0  0  0  0  0  0  0
   -0.1964    2.7763    0.0000 C    0  0  0  0  0  0  0  0  0  0  0  0
   -0.6504    3.6673    0.0000 C    0  0  0  0  0  0  0  0  0  0  0  0
   -1.6490    3.7196    0.0000 C    0  0  0  0  0  0  0  0  0  0  0  0
   -2.1936    2.8810    0.0000 C    0  0  0  0  0  0  0  0  0  0  0  0
   -1.7397    1.9900    0.0000 C    0  0  0  0  0  0  0  0  0  0  0  0
   -0.7410    0.1556    0.0000 C    0  0  0  0  0  0  0  0  0  0  0  0
   -0.0339   -0.5515    0.0000 C    0  0  2  0  0  0  0  0  0  0  0  0
    1.7321    0.0000    0.0000 P    0  0  0  0  0  0  0  0  0  0  0  0
    1.7321    1.0000    0.0000 O    0  0  0  0  0  0  0  0  0  0  0  0
    0.8660   -0.5000    0.0000 C    0  0  0  0  0  0  0  0  0  0  0  0
    0.8660   -1.5000    0.0000 C    0  0  0  0  0  0  0  0  0  0  0  0
    0.0000   -2.0000    0.0000 C    0  0  0  0  0  0  0  0  0  0  0  0
   -0.8660   -1.5000    0.0000 C    0  0  0  0  0  0  0  0  0  0  0  0
   -0.8660   -0.5000    0.0000 C    0  0  0  0  0  0  0  0  0  0  0  0
    0.0000    0.0000    0.0000 C    0  0  0  0  0  0  0  0  0  0  0  0
    2.5981   -0.5000    0.0000 C    0  0  0  0  0  0  0  0  0  0  0  0
    3.3752    0.1293    0.0000 C    0  0  0  0  0  0  0  0  0  0  0  0
    4.3088   -0.2290    0.0000 C    0  0  0  0  0  0  0  0  0  0  0  0
    4.4652   -1.2167    0.0000 C    0  0  0  0  0  0  0  0  0  0  0  0
    3.6881   -1.8461    0.0000 C    0  0  0  0  0  0  0  0  0  0  0  0
    2.7545   -1.4877    0.0000 C    0  0  0  0  0  0  0  0  0  0  0  0
  2  1  1  6  0  0  0
  2 11  1  0  0  0  0
  2 21  1  0  0  0  0
  2  3  1  0  0  0  0
  3  4  1  0  0  0  0
  4 10  2  0  0  0  0
  4  5  1  0  0  0  0
  5  6  2  0  0  0  0
  6  7  1  0  0  0  0
  6  8  1  0  0  0  0
  8  9  2  0  0  0  0
  9 10  1  0  0  0  0
 10 11  1  0  0  0  0
 11 12  1  6  0  0  0
 11 13  1  0  0  0  0
 13 14  1  0  0  0  0
 13 20  2  0  0  0  0
 14 19  2  0  0  0  0
 14 15  1  0  0  0  0
 15 16  2  0  0  0  0
 16 17  1  0  0  0  0
 17 18  2  0  0  0  0
 18 19  1  0  0  0  0
 20 21  1  0  0  0  0
 21 22  1  1  0  0  0
 22 23  2  0  0  0  0
 22 24  1  0  0  0  0
 22 30  1  0  0  0  0
 24 29  2  0  0  0  0
 24 25  1  0  0  0  0
 25 26  2  0  0  0  0
 26 27  1  0  0  0  0
 27 28  2  0  0  0  0
 28 29  1  0  0  0  0
 30 35  2  0  0  0  0
 30 31  1  0  0  0  0
 31 32  2  0  0  0  0
 32 33  1  0  0  0  0
 33 34  2  0  0  0  0
 34 35  1  0  0  0  0
M  END
> <NMREDATA_VERSION>
1.1

> <NMREDATA_LEVEL>
0

> <NMREDATA_SOLVENT>
CDCl3

> <NMREDATA_FORMULA>
C30H24BrO3P

> <NMREDATA_SMILES>
Brc1ccc2c(c1)O[C@@]1([C@@]2(O)C(=C[C@@H]1P(=O)(c1ccccc1)c1ccccc1)c1ccccc1)C

> <NMREDATA_ASSIGNMENT>
P22, 29.61, 22

> <NMREDATA_1D_31P>
Larmor=162
29.61, L=P22

$$$$
