
 OpenBabel06112616452D

 30 34  0  0  0  0  0  0  0  0999 V2000
    5.4648   -5.2679    0.0000 C   0  0  0  0  0  0  0  0  0  0  0  0
    4.6173   -4.7785    0.0000 P   0  3  0  0  0  0  0  0  0  0  0  0
    4.6173   -3.8279    0.0000 C   0  0  0  0  0  0  0  0  0  0  0  0
    5.4409   -3.3523    0.0000 C   0  0  0  0  0  0  0  0  0  0  0  0
    5.4409   -2.4017    0.0000 C   0  0  0  0  0  0  0  0  0  0  0  0
    4.6171   -1.9260    0.0000 C   0  0  0  0  0  0  0  0  0  0  0  0
    4.6173   -0.9754    0.0000 C   0  0  0  0  0  0  0  0  0  0  0  0
    3.7941   -0.5000    0.0000 C   0  0  0  0  0  0  0  0  0  0  0  0
    2.9708   -0.9752    0.0000 C   0  0  0  0  0  0  0  0  0  0  0  0
    2.9707   -1.9258    0.0000 C   0  0  0  0  0  0  0  0  0  0  0  0
    3.7938   -2.4012    0.0000 C   0  0  0  0  0  0  0  0  0  0  0  0
    3.7936   -3.3522    0.0000 C   0  0  0  0  0  0  0  0  0  0  0  0
    2.9700   -4.7785    0.0000 C   0  0  0  0  0  0  0  0  0  0  0  0
    3.7938   -5.2541    0.0000 C   0  0  0  0  0  0  0  0  0  0  0  0
    3.7935   -6.2052    0.0000 C   0  0  0  0  0  0  0  0  0  0  0  0
    2.9702   -6.6804    0.0000 C   0  0  0  0  0  0  0  0  0  0  0  0
    2.1465   -6.2047    0.0000 C   0  0  0  0  0  0  0  0  0  0  0  0
    1.3232   -6.6800    0.0000 C   0  0  0  0  0  0  0  0  0  0  0  0
    0.5000   -6.2047    0.0000 C   0  0  0  0  0  0  0  0  0  0  0  0
    0.5000   -5.2541    0.0000 C   0  0  0  0  0  0  0  0  0  0  0  0
    1.3232   -4.7788    0.0000 C   0  0  0  0  0  0  0  0  0  0  0  0
    2.1465   -5.2541    0.0000 C   0  0  0  0  0  0  0  0  0  0  0  0
    6.2637   -3.8277    0.0000 C   0  0  0  0  0  0  0  0  0  0  0  0
    6.3825   -2.8845    0.0000 C   0  0  0  0  0  0  0  0  0  0  0  0
    7.1940   -2.3894    0.0000 C   0  0  0  0  0  0  0  0  0  0  0  0
    8.0871   -2.7151    0.0000 C   0  0  0  0  0  0  0  0  0  0  0  0
    8.3892   -3.6164    0.0000 C   0  0  0  0  0  0  0  0  0  0  0  0
    7.8729   -4.4146    0.0000 C   0  0  0  0  0  0  0  0  0  0  0  0
    6.9270   -4.5086    0.0000 C   0  0  0  0  0  0  0  0  0  0  0  0
    9.3892   -0.5000    0.0000 I   0  5  0  0  0  0  0  0  0  0  0  0
  1  2  1  0  0  0  0
  2 14  1  0  0  0  0
  2  3  1  0  0  0  0
  2 23  1  0  0  0  0
  3 12  1  0  0  0  0
  3  4  2  0  0  0  0
  4  5  1  0  0  0  0
  5  6  2  0  0  0  0
  6 11  1  0  0  0  0
  6  7  1  0  0  0  0
  7  8  2  0  0  0  0
  8  9  1  0  0  0  0
  9 10  2  0  0  0  0
 10 11  1  0  0  0  0
 11 12  2  0  0  0  0
 12 13  1  0  0  0  0
 13 22  1  0  0  0  0
 13 14  2  0  0  0  0
 14 15  1  0  0  0  0
 15 16  2  0  0  0  0
 16 17  1  0  0  0  0
 17 22  1  0  0  0  0
 17 18  2  0  0  0  0
 18 19  1  0  0  0  0
 19 20  2  0  0  0  0
 20 21  1  0  0  0  0
 21 22  2  0  0  0  0
 23 29  1  0  0  0  0
 23 24  1  0  0  0  0
 24 25  1  0  0  0  0
 25 26  1  0  0  0  0
 26 27  1  0  0  0  0
 27 28  1  0  0  0  0
 28 29  1  0  0  0  0
M  END
> <NMREDATA_VERSION>
1.1

> <NMREDATA_LEVEL>
0

> <NMREDATA_SOLVENT>
CDCl3

> <NMREDATA_FORMULA>
C28H28IP

> <NMREDATA_SMILES>
C[P+]1(C2CCCCCC2)c2ccc3c(c2-c2c1ccc1c2cccc1)cccc3.[I-]

> <NMREDATA_ASSIGNMENT>
P2, 39.26, 2

> <NMREDATA_1D_31P>
Larmor=243
39.26, L=P2

$$$$
