
 OpenBabel06112616432D

 49 52  0  0  1  0  0  0  0  0999 V2000
    1.0000   -1.0000    0.0000 O   0  0  0  0  0  0  0  0  0  0  0  0
    1.8660   -1.5000    0.0000 C   0  0  0  0  0  0  0  0  0  0  0  0
    2.7321   -1.0000    0.0000 C   0  0  0  0  0  0  0  0  0  0  0  0
    3.5981   -1.5000    0.0000 C   0  0  0  0  0  0  0  0  0  0  0  0
    3.5981   -2.5000    0.0000 C   0  0  0  0  0  0  0  0  0  0  0  0
    2.7321   -3.0000    0.0000 C   0  0  0  0  0  0  0  0  0  0  0  0
    1.8660   -2.5000    0.0000 C   0  0  0  0  0  0  0  0  0  0  0  0
    1.0000    0.0000    0.0000 P   0  0  0  0  0  0  0  0  0  0  0  0
    2.0000    0.0000    0.0000 O   0  0  0  0  0  0  0  0  0  0  0  0
    1.0000    1.0000    0.0000 O   0  0  0  0  0  0  0  0  0  0  0  0
    1.8660    1.5000    0.0000 C   0  0  0  0  0  0  0  0  0  0  0  0
    1.8660    2.5000    0.0000 C   0  0  0  0  0  0  0  0  0  0  0  0
    2.7321    3.0000    0.0000 C   0  0  0  0  0  0  0  0  0  0  0  0
    2.7321    4.0000    0.0000 C   0  0  0  0  0  0  0  0  0  0  0  0
    3.5981    4.5000    0.0000 C   0  0  0  0  0  0  0  0  0  0  0  0
    3.5981    5.5000    0.0000 C   0  0  0  0  0  0  0  0  0  0  0  0
    2.7321    6.0000    0.0000 C   0  0  0  0  0  0  0  0  0  0  0  0
    1.8660    5.5000    0.0000 C   0  0  0  0  0  0  0  0  0  0  0  0
    1.8660    4.5000    0.0000 C   0  0  0  0  0  0  0  0  0  0  0  0
    1.0842    3.8765    0.0000 C   0  0  0  0  0  0  0  0  0  0  0  0
    1.3067    2.9016    0.0000 O   0  0  0  0  0  0  0  0  0  0  0  0
    0.1093    4.0990    0.0000 N   0  0  0  0  0  0  0  0  0  0  0  0
   -0.5142    3.3172    0.0000 C   0  0  0  0  0  0  0  0  0  0  0  0
   -1.5031    3.4662    0.0000 C   0  0  0  0  0  0  0  0  0  0  0  0
   -1.8684    4.3971    0.0000 C   0  0  0  0  0  0  0  0  0  0  0  0
   -2.8572    4.5462    0.0000 C   0  0  0  0  0  0  0  0  0  0  0  0
   -3.4807    3.7643    0.0000 C   0  0  3  0  0  0  0  0  0  0  0  0
   -3.1154    2.8335    0.0000 N   0  0  0  0  0  0  0  0  0  0  0  0
   -3.7389    2.0516    0.0000 C   0  0  0  0  0  0  0  0  0  0  0  0
   -3.3735    1.1207    0.0000 O   0  0  0  0  0  0  0  0  0  0  0  0
   -4.7277    2.2007    0.0000 O   0  0  0  0  0  0  0  0  0  0  0  0
   -5.3512    1.4188    0.0000 C   0  0  0  0  0  0  0  0  0  0  0  0
   -6.2821    1.0535    0.0000 C   0  0  0  0  0  0  0  0  0  0  0  0
   -6.1330    2.0423    0.0000 C   0  0  0  0  0  0  0  0  0  0  0  0
   -4.9858    0.4880    0.0000 C   0  0  0  0  0  0  0  0  0  0  0  0
   -4.4695    3.9134    0.0000 C   0  0  0  0  0  0  0  0  0  0  0  0
   -5.0930    3.1315    0.0000 O   0  0  0  0  0  0  0  0  0  0  0  0
   -4.8349    4.8442    0.0000 O   0  0  0  0  0  0  0  0  0  0  0  0
   -5.8237    4.9933    0.0000 C   0  0  0  0  0  0  0  0  0  0  0  0
   -0.3246    5.0000    0.0000 C   0  0  0  0  0  0  0  0  0  0  0  0
    0.1093    5.9010    0.0000 C   0  0  0  0  0  0  0  0  0  0  0  0
    1.0842    6.1235    0.0000 C   0  0  0  0  0  0  0  0  0  0  0  0
    0.0000    0.0000    0.0000 O   0  0  0  0  0  0  0  0  0  0  0  0
   -0.5000    0.8660    0.0000 C   0  0  0  0  0  0  0  0  0  0  0  0
   -1.5000    0.8660    0.0000 C   0  0  0  0  0  0  0  0  0  0  0  0
   -2.0000    1.7321    0.0000 C   0  0  0  0  0  0  0  0  0  0  0  0
   -1.5000    2.5981    0.0000 C   0  0  0  0  0  0  0  0  0  0  0  0
   -0.5000    2.5981    0.0000 C   0  0  0  0  0  0  0  0  0  0  0  0
    0.0000    1.7321    0.0000 C   0  0  0  0  0  0  0  0  0  0  0  0
  1  2  1  0  0  0  0
  1  8  1  0  0  0  0
  2  7  2  0  0  0  0
  2  3  1  0  0  0  0
  3  4  2  0  0  0  0
  4  5  1  0  0  0  0
  5  6  2  0  0  0  0
  6  7  1  0  0  0  0
  8  9  2  0  0  0  0
  8 10  1  0  0  0  0
  8 43  1  0  0  0  0
 10 11  1  0  0  0  0
 11 12  1  0  0  0  0
 12 13  1  0  0  0  0
 13 14  1  0  0  0  0
 14 19  2  0  0  0  0
 14 15  1  0  0  0  0
 15 16  2  0  0  0  0
 16 17  1  0  0  0  0
 17 18  2  0  0  0  0
 18 42  1  0  0  0  0
 18 19  1  0  0  0  0
 19 20  1  0  0  0  0
 20 21  2  0  0  0  0
 20 22  1  0  0  0  0
 22 23  1  0  0  0  0
 22 40  1  0  0  0  0
 23 24  1  0  0  0  0
 24 25  1  0  0  0  0
 25 26  1  0  0  0  0
 26 27  1  0  0  0  0
 27 28  1  0  0  0  0
 27 36  1  0  0  0  0
 28 29  1  0  0  0  0
 29 30  2  0  0  0  0
 29 31  1  0  0  0  0
 31 32  1  0  0  0  0
 32 33  1  0  0  0  0
 32 34  1  0  0  0  0
 32 35  1  0  0  0  0
 36 37  2  0  0  0  0
 36 38  1  0  0  0  0
 38 39  1  0  0  0  0
 40 41  2  0  0  0  0
 41 42  1  0  0  0  0
 43 44  1  0  0  0  0
 44 49  2  0  0  0  0
 44 45  1  0  0  0  0
 45 46  2  0  0  0  0
 46 47  1  0  0  0  0
 47 48  2  0  0  0  0
 48 49  1  0  0  0  0
M  END
> <NMREDATA_VERSION>
1.1

> <NMREDATA_LEVEL>
0

> <NMREDATA_SOLVENT>
CDCl3

> <NMREDATA_FORMULA>
C37H45N2O9P

> <NMREDATA_SMILES>
COC(=O)C(NC(=O)OC(C)(C)C)CCCCN1C=CCc2c(C1=O)c(CCCOP(=O)(Oc1ccccc1)Oc1ccccc1)ccc2

> <NMREDATA_ASSIGNMENT>
P8, -11.90, 8

> <NMREDATA_1D_31P>
Larmor=162
-11.90, L=P8

$$$$
