
 OpenBabel06112616452D

 41 45  0  0  0  0  0  0  0  0999 V2000
    0.0000    2.9348    0.0000 C   0  0  0  0  0  0  0  0  0  0  0  0
    0.8472    2.4457    0.0000 C   0  0  0  0  0  0  0  0  0  0  0  0
    0.8472    1.4674    0.0000 C   0  0  0  0  0  0  0  0  0  0  0  0
    0.0000    0.9783    0.0000 C   0  0  0  0  0  0  0  0  0  0  0  0
   -0.8472    1.4674    0.0000 C   0  0  0  0  0  0  0  0  0  0  0  0
   -1.6944    0.9783    0.0000 C   0  0  0  0  0  0  0  0  0  0  0  0
   -1.6944    0.0000    0.0000 C   0  0  0  0  0  0  0  0  0  0  0  0
   -2.5416   -0.4891    0.0000 C   0  0  0  0  0  0  0  0  0  0  0  0
   -3.5199   -0.4891    0.0000 C   0  0  0  0  0  0  0  0  0  0  0  0
   -3.0307    0.3581    0.0000 C   0  0  0  0  0  0  0  0  0  0  0  0
   -2.5416   -1.4674    0.0000 C   0  0  0  0  0  0  0  0  0  0  0  0
   -1.6944   -1.9565    0.0000 O   0  0  0  0  0  0  0  0  0  0  0  0
   -3.3888   -1.9565    0.0000 N   0  0  0  0  0  0  0  0  0  0  0  0
   -4.2360   -1.4674    0.0000 C   0  0  0  0  0  0  0  0  0  0  0  0
   -5.0832   -1.9565    0.0000 C   0  0  0  0  0  0  0  0  0  0  0  0
   -5.0832   -2.9348    0.0000 O   0  0  0  0  0  0  0  0  0  0  0  0
   -4.2360   -3.4239    0.0000 C   0  0  0  0  0  0  0  0  0  0  0  0
   -3.3888   -2.9348    0.0000 C   0  0  0  0  0  0  0  0  0  0  0  0
   -0.8472   -0.4891    0.0000 C   0  0  0  0  0  0  0  0  0  0  0  0
   -0.8472   -1.4674    0.0000 C   0  0  0  0  0  0  0  0  0  0  0  0
    0.0000   -1.9565    0.0000 C   0  0  0  0  0  0  0  0  0  0  0  0
    0.8472   -1.4674    0.0000 C   0  0  0  0  0  0  0  0  0  0  0  0
    0.8472   -0.4891    0.0000 C   0  0  0  0  0  0  0  0  0  0  0  0
    2.5416    0.4891    0.0000 P   0  0  0  0  0  0  0  0  0  0  0  0
    2.5416    1.4674    0.0000 C   0  0  0  0  0  0  0  0  0  0  0  0
    3.3888    1.9565    0.0000 C   0  0  0  0  0  0  0  0  0  0  0  0
    3.3888    2.9348    0.0000 C   0  0  0  0  0  0  0  0  0  0  0  0
    2.5416    3.4239    0.0000 C   0  0  0  0  0  0  0  0  0  0  0  0
    1.6944    2.9348    0.0000 C   0  0  0  0  0  0  0  0  0  0  0  0
    1.6944    1.9565    0.0000 C   0  0  0  0  0  0  0  0  0  0  0  0
    3.3888    0.0000    0.0000 C   0  0  0  0  0  0  0  0  0  0  0  0
    3.3888   -0.9783    0.0000 C   0  0  0  0  0  0  0  0  0  0  0  0
    4.2360   -1.4674    0.0000 C   0  0  0  0  0  0  0  0  0  0  0  0
    5.0832   -0.9783    0.0000 C   0  0  0  0  0  0  0  0  0  0  0  0
    5.0832    0.0000    0.0000 C   0  0  0  0  0  0  0  0  0  0  0  0
    4.2360    0.4891    0.0000 C   0  0  0  0  0  0  0  0  0  0  0  0
    0.0000    0.0000    0.0000 C   0  0  0  0  0  0  0  0  0  0  0  0
    0.0000    3.9130    0.0000 O   0  0  0  0  0  0  0  0  0  0  0  0
   -0.8472    4.4022    0.0000 C   0  0  0  0  0  0  0  0  0  0  0  0
   -0.8472    5.3804    0.0000 C   0  0  0  0  0  0  0  0  0  0  0  0
   -0.8472    2.4457    0.0000 O   0  0  0  0  0  0  0  0  0  0  0  0
  1  2  1  0  0  0  0
  1 38  1  0  0  0  0
  1 41  2  0  0  0  0
  2  3  1  0  0  0  0
  3  4  1  0  0  0  0
  4 37  2  0  0  0  0
  4  5  1  0  0  0  0
  5  6  2  0  0  0  0
  6  7  1  0  0  0  0
  7  8  1  0  0  0  0
  7 19  2  0  0  0  0
  8  9  1  0  0  0  0
  8 10  1  0  0  0  0
  8 11  1  0  0  0  0
 11 12  2  0  0  0  0
 11 13  1  0  0  0  0
 13 18  1  0  0  0  0
 13 14  1  0  0  0  0
 14 15  1  0  0  0  0
 15 16  1  0  0  0  0
 16 17  1  0  0  0  0
 17 18  1  0  0  0  0
 19 37  1  0  0  0  0
 19 20  1  0  0  0  0
 20 21  2  0  0  0  0
 21 22  1  0  0  0  0
 22 23  2  0  0  0  0
 23 24  1  0  0  0  0
 23 37  1  0  0  0  0
 24 25  1  0  0  0  0
 24 31  1  0  0  0  0
 25 30  2  0  0  0  0
 25 26  1  0  0  0  0
 26 27  2  0  0  0  0
 27 28  1  0  0  0  0
 28 29  2  0  0  0  0
 29 30  1  0  0  0  0
 31 36  2  0  0  0  0
 31 32  1  0  0  0  0
 32 33  2  0  0  0  0
 33 34  1  0  0  0  0
 34 35  2  0  0  0  0
 35 36  1  0  0  0  0
 38 39  1  0  0  0  0
 39 40  1  0  0  0  0
M  END
> <NMREDATA_VERSION>
1.1

> <NMREDATA_LEVEL>
0

> <NMREDATA_SOLVENT>
CDCl3

> <NMREDATA_FORMULA>
C35H38NO4P

> <NMREDATA_SMILES>
CCOC(=O)CCc1ccc(c2c1c(ccc2)P(c1ccccc1)c1ccccc1)C(C(=O)N1CCOCC1)(C)C

> <NMREDATA_ASSIGNMENT>
P24, -1.06, 24

> <NMREDATA_1D_31P>
Larmor=162
-1.06, L=P24

$$$$
