
 OpenBabel06112616442D

 45 48  0  0  1  0  0  0  0  0999 V2000
   -2.9388   -2.6763    0.0000 C   0  0  0  0  0  0  0  0  0  0  0  0
   -2.4490   -1.8279    0.0000 C   0  0  0  0  0  0  0  0  0  0  0  0
   -1.4694   -1.8279    0.0000 C   0  0  0  0  0  0  0  0  0  0  0  0
   -0.9796   -0.9796    0.0000 C   0  0  0  0  0  0  0  0  0  0  0  0
    0.0000   -0.9796    0.0000 P   0  3  0  0  0  0  0  0  0  0  0  0
    0.0000   -1.9592    0.0000 C   0  0  0  0  0  0  0  0  0  0  0  0
    0.8484   -2.4490    0.0000 C   0  0  0  0  0  0  0  0  0  0  0  0
    0.8484   -3.4286    0.0000 C   0  0  0  0  0  0  0  0  0  0  0  0
    1.6967   -3.9184    0.0000 C   0  0  0  0  0  0  0  0  0  0  0  0
    0.9796   -0.9796    0.0000 C   0  0  0  0  0  0  0  0  0  0  0  0
    1.4694   -1.8279    0.0000 C   0  0  0  0  0  0  0  0  0  0  0  0
    2.4490   -1.8279    0.0000 C   0  0  0  0  0  0  0  0  0  0  0  0
    2.9388   -2.6763    0.0000 C   0  0  0  0  0  0  0  0  0  0  0  0
    0.0000    0.0000    0.0000 C   0  0  3  0  0  0  0  0  0  0  0  0
    1.6967    0.9796    0.0000 C   0  0  0  0  0  0  0  0  0  0  0  0
    1.6967    1.9592    0.0000 C   0  0  0  0  0  0  0  0  0  0  0  0
    2.5451    2.4490    0.0000 C   0  0  0  0  0  0  0  0  0  0  0  0
    2.5451    3.4286    0.0000 C   0  0  0  0  0  0  0  0  0  0  0  0
    3.3934    3.9184    0.0000 C   0  0  0  0  0  0  0  0  0  0  0  0
    4.2418    3.4286    0.0000 C   0  0  0  0  0  0  0  0  0  0  0  0
    5.0901    3.9184    0.0000 N   0  0  0  0  0  0  0  0  0  0  0  0
    5.9385    3.4286    0.0000 C   0  0  0  0  0  0  0  0  0  0  0  0
    6.7868    3.9184    0.0000 C   0  0  0  0  0  0  0  0  0  0  0  0
    5.0901    4.8980    0.0000 C   0  0  0  0  0  0  0  0  0  0  0  0
    5.9385    5.3878    0.0000 C   0  0  0  0  0  0  0  0  0  0  0  0
    4.2418    2.4490    0.0000 C   0  0  0  0  0  0  0  0  0  0  0  0
    3.3934    1.9592    0.0000 C   0  0  0  0  0  0  0  0  0  0  0  0
    3.3934    0.9796    0.0000 O   0  0  0  0  0  0  0  0  0  0  0  0
    2.5451    0.4898    0.0000 C   0  0  0  0  0  0  0  0  0  0  0  0
    2.5451   -0.4898    0.0000 O   0  0  0  0  0  0  0  0  0  0  0  0
   -0.8484    0.4898    0.0000 C   0  0  0  0  0  0  0  0  0  0  0  0
   -0.8484    1.4694    0.0000 C   0  0  0  0  0  0  0  0  0  0  0  0
   -0.0558    2.0452    0.0000 N   0  0  0  0  0  0  0  0  0  0  0  0
    0.8758    1.7425    0.0000 C   0  0  0  0  0  0  0  0  0  0  0  0
   -0.3586    2.9768    0.0000 C   0  0  0  0  0  0  0  0  0  0  0  0
    0.1312    3.8252    0.0000 C   0  0  0  0  0  0  0  0  0  0  0  0
   -0.3586    4.6735    0.0000 C   0  0  0  0  0  0  0  0  0  0  0  0
   -1.3381    4.6735    0.0000 C   0  0  0  0  0  0  0  0  0  0  0  0
   -1.8279    5.5219    0.0000 O   0  0  0  0  0  0  0  0  0  0  0  0
   -2.8075    5.5219    0.0000 C   0  0  0  0  0  0  0  0  0  0  0  0
   -1.8279    3.8252    0.0000 C   0  0  0  0  0  0  0  0  0  0  0  0
   -1.3381    2.9768    0.0000 C   0  0  0  0  0  0  0  0  0  0  0  0
   -1.6409    2.0452    0.0000 C   0  0  0  0  0  0  0  0  0  0  0  0
   -2.2963    1.3172    0.0000 C   0  0  0  0  0  0  0  0  0  0  0  0
   -2.5990    2.2488    0.0000 C   0  0  0  0  0  0  0  0  0  0  0  0
  1  2  1  0  0  0  0
  2  3  1  0  0  0  0
  3  4  1  0  0  0  0
  4  5  1  0  0  0  0
  5  6  1  0  0  0  0
  5 10  1  0  0  0  0
  5 14  1  0  0  0  0
  6  7  1  0  0  0  0
  7  8  1  0  0  0  0
  8  9  1  0  0  0  0
 10 11  1  0  0  0  0
 11 12  1  0  0  0  0
 12 13  1  0  0  0  0
 14 15  1  0  0  0  0
 14 31  1  0  0  0  0
 15 29  1  0  0  0  0
 15 16  2  0  0  0  0
 16 17  1  0  0  0  0
 17 27  2  0  0  0  0
 17 18  1  0  0  0  0
 18 19  2  0  0  0  0
 19 20  1  0  0  0  0
 20 21  1  0  0  0  0
 20 26  2  0  0  0  0
 21 22  1  0  0  0  0
 21 24  1  0  0  0  0
 22 23  1  0  0  0  0
 24 25  1  0  0  0  0
 26 27  1  0  0  0  0
 27 28  1  0  0  0  0
 28 29  1  0  0  0  0
 29 30  2  0  0  0  0
 31 32  2  0  0  0  0
 32 43  1  0  0  0  0
 32 33  1  0  0  0  0
 33 34  1  0  0  0  0
 33 35  1  0  0  0  0
 35 42  2  0  0  0  0
 35 36  1  0  0  0  0
 36 37  2  0  0  0  0
 37 38  1  0  0  0  0
 38 39  1  0  0  0  0
 38 41  2  0  0  0  0
 39 40  1  0  0  0  0
 41 42  1  0  0  0  0
 42 43  1  0  0  0  0
 43 44  1  0  0  0  0
 43 45  1  0  0  0  0
M  END
> <NMREDATA_VERSION>
1.1

> <NMREDATA_LEVEL>
0

> <NMREDATA_SOLVENT>
CD3CN

> <NMREDATA_FORMULA>
C39H58N2O3P

> <NMREDATA_SMILES>
CCCC[P+](C(c1cc2ccc(cc2oc1=O)N(CC)CC)/C=C/1\N(C)c2c(C1(C)C)cc(cc2)OC)(CCCC)CCCC

> <NMREDATA_ASSIGNMENT>
P5, 36.15, 5

> <NMREDATA_1D_31P>
Larmor=122
36.15, L=P5

$$$$
