
 OpenBabel06112616452D

 21 22  0  0  0  0  0  0  0  0999 V2000
    0.5909    2.0032    0.0000 C   0  0  0  0  0  0  0  0  0  0  0  0
    1.2601    1.2601    0.0000 C   0  0  0  0  0  0  0  0  0  0  0  0
    0.9511    0.3090    0.0000 C   0  0  0  0  0  0  0  0  0  0  0  0
    1.5388   -0.5000    0.0000 C   0  0  0  0  0  0  0  0  0  0  0  0
    0.9511   -1.3090    0.0000 N   0  0  0  0  0  0  0  0  0  0  0  0
    1.2601   -2.2601    0.0000 P   0  0  0  0  0  0  0  0  0  0  0  0
    0.5909   -3.0032    0.0000 C   0  0  0  0  0  0  0  0  0  0  0  0
    0.3830   -3.9814    0.0000 C   0  0  0  0  0  0  0  0  0  0  0  0
    1.3341   -3.6723    0.0000 C   0  0  0  0  0  0  0  0  0  0  0  0
   -0.3872   -2.7953    0.0000 C   0  0  0  0  0  0  0  0  0  0  0  0
    2.2382   -2.4680    0.0000 C   0  0  0  0  0  0  0  0  0  0  0  0
    3.1893   -2.1590    0.0000 C   0  0  0  0  0  0  0  0  0  0  0  0
    2.4461   -1.4898    0.0000 C   0  0  0  0  0  0  0  0  0  0  0  0
    2.5472   -3.4190    0.0000 C   0  0  0  0  0  0  0  0  0  0  0  0
    0.0000   -1.0000    0.0000 C   0  0  0  0  0  0  0  0  0  0  0  0
   -0.8660   -1.5000    0.0000 C   0  0  0  0  0  0  0  0  0  0  0  0
   -1.7321   -1.0000    0.0000 C   0  0  0  0  0  0  0  0  0  0  0  0
   -1.7321    0.0000    0.0000 C   0  0  0  0  0  0  0  0  0  0  0  0
   -0.8660    0.5000    0.0000 C   0  0  0  0  0  0  0  0  0  0  0  0
    0.0000    0.0000    0.0000 C   0  0  0  0  0  0  0  0  0  0  0  0
   -0.0782    2.7464    0.0000 N   0  0  0  0  0  0  0  0  0  0  0  0
  1  2  1  0  0  0  0
  1 21  3  0  0  0  0
  2  3  1  0  0  0  0
  3 20  1  0  0  0  0
  3  4  2  0  0  0  0
  4  5  1  0  0  0  0
  5  6  1  0  0  0  0
  5 15  1  0  0  0  0
  6  7  1  0  0  0  0
  6 11  1  0  0  0  0
  7  8  1  0  0  0  0
  7  9  1  0  0  0  0
  7 10  1  0  0  0  0
 11 12  1  0  0  0  0
 11 13  1  0  0  0  0
 11 14  1  0  0  0  0
 15 20  2  0  0  0  0
 15 16  1  0  0  0  0
 16 17  2  0  0  0  0
 17 18  1  0  0  0  0
 18 19  2  0  0  0  0
 19 20  1  0  0  0  0
M  END
> <NMREDATA_VERSION>
1.1

> <NMREDATA_LEVEL>
0

> <NMREDATA_SOLVENT>
CDCl3

> <NMREDATA_FORMULA>
C18H25N2P

> <NMREDATA_SMILES>
N#CCc1cn(c2c1cccc2)P(C(C)(C)C)C(C)(C)C

> <NMREDATA_ASSIGNMENT>
P6, 73.10, 6

> <NMREDATA_1D_31P>
Larmor=162
73.10, L=P6

$$$$
