
 OpenBabel06112616482D

 13 13  0  0  0  0  0  0  0  0999 V2000
     1.866    -1.500     0.000 C   0  0  0  0  0  0  0  0  0  0  0  0
     1.000    -1.000     0.000 C   0  0  0  0  0  0  0  0  0  0  0  0
     0.000    -1.000     0.000 C   0  0  0  0  0  0  0  0  0  0  0  0
     0.500    -1.866     0.000 C   0  0  0  0  0  0  0  0  0  0  0  0
     1.000     0.000     0.000 P   0  0  1  0  0  0  0  0  0  0  0  0
     2.000     0.000     0.000 C   0  0  0  0  0  0  0  0  0  0  0  0
     2.500     0.866     0.000 C   0  0  0  0  0  0  0  0  0  0  0  0
     3.500     0.866     0.000 C   0  0  0  0  0  0  0  0  0  0  0  0
     4.000     0.000     0.000 C   0  0  0  0  0  0  0  0  0  0  0  0
     3.500    -0.866     0.000 C   0  0  0  0  0  0  0  0  0  0  0  0
     2.500    -0.866     0.000 C   0  0  0  0  0  0  0  0  0  0  0  0
     1.000     1.000     0.000 O   0  0  0  0  0  0  0  0  0  0  0  0
     0.000     0.000     0.000 C   0  0  0  0  0  0  0  0  0  0  0  0
  1  2  1  0  0  0  0
  2  3  1  0  0  0  0
  2  4  1  0  0  0  0
  2  5  1  0  0  0  0
  5  6  1  0  0  0  0
  5 12  2  0  0  0  0
  5 13  1  1  0  0  0
  6 11  2  0  0  0  0
  6  7  1  0  0  0  0
  7  8  2  0  0  0  0
  8  9  1  0  0  0  0
  9 10  2  0  0  0  0
 10 11  1  0  0  0  0
M  END
> <NMREDATA_VERSION>
1.1

> <NMREDATA_LEVEL>
0

> <NMREDATA_SOLVENT>
CDCl3

> <NMREDATA_FORMULA>
C11H17OP

> <NMREDATA_SMILES>
CC([P@](=O)(c1ccccc1)C)(C)C

> <NMREDATA_ASSIGNMENT>
P5, 47.90, 5

> <NMREDATA_1D_31P>
Larmor=162
47.90, L=P5

$$$$
