
 OpenBabel06112616472D

 30 33  0  0  1  0  0  0  0  0999 V2000
    0.8406   -1.4559    0.0000 C   0  0  0  0  0  0  0  0  0  0  0  0
    0.0000   -0.9706    0.0000 C   0  0  0  0  0  0  0  0  0  0  0  0
   -0.8406   -1.4559    0.0000 C   0  0  0  0  0  0  0  0  0  0  0  0
   -1.6811   -0.9706    0.0000 C   0  0  0  0  0  0  0  0  0  0  0  0
   -1.6811    0.0000    0.0000 C   0  0  0  0  0  0  0  0  0  0  0  0
   -2.5217    0.4853    0.0000 P   0  0  0  0  0  0  0  0  0  0  0  0
   -2.5217    1.4559    0.0000 C   0  0  0  0  0  0  0  0  0  0  0  0
   -3.3622    1.9412    0.0000 C   0  0  0  0  0  0  0  0  0  0  0  0
   -3.3622    2.9118    0.0000 C   0  0  0  0  0  0  0  0  0  0  0  0
   -2.5217    3.3971    0.0000 C   0  0  0  0  0  0  0  0  0  0  0  0
   -2.5217    4.3676    0.0000 C   0  0  0  0  0  0  0  0  0  0  0  0
   -1.6811    2.9118    0.0000 C   0  0  0  0  0  0  0  0  0  0  0  0
   -1.6811    1.9412    0.0000 C   0  0  0  0  0  0  0  0  0  0  0  0
   -4.2028   -0.4853    0.0000 C   0  0  0  0  0  0  0  0  0  0  0  0
   -4.2028   -1.4559    0.0000 C   0  0  0  0  0  0  0  0  0  0  0  0
   -5.0433   -1.9412    0.0000 C   0  0  0  0  0  0  0  0  0  0  0  0
   -5.8839   -1.4559    0.0000 C   0  0  0  0  0  0  0  0  0  0  0  0
   -5.8839   -0.4853    0.0000 C   0  0  0  0  0  0  0  0  0  0  0  0
   -5.0433    0.0000    0.0000 C   0  0  0  0  0  0  0  0  0  0  0  0
   -5.0433    0.9706    0.0000 C   0  0  0  0  0  0  0  0  0  0  0  0
   -5.8285    1.5411    0.0000 N   0  0  0  0  0  0  0  0  0  0  0  0
   -5.5286    2.4642    0.0000 C   0  0  1  0  0  0  0  0  0  0  0  0
   -6.0991    3.2494    0.0000 C   0  0  0  0  0  0  0  0  0  0  0  0
   -6.9858    3.6442    0.0000 C   0  0  0  0  0  0  0  0  0  0  0  0
   -6.8843    2.6789    0.0000 C   0  0  0  0  0  0  0  0  0  0  0  0
   -5.7043    4.1361    0.0000 C   0  0  0  0  0  0  0  0  0  0  0  0
   -4.5580    2.4642    0.0000 C   0  0  0  0  0  0  0  0  0  0  0  0
   -4.2581    1.5411    0.0000 O   0  0  0  0  0  0  0  0  0  0  0  0
   -0.8406    0.4853    0.0000 C   0  0  0  0  0  0  0  0  0  0  0  0
    0.0000    0.0000    0.0000 C   0  0  0  0  0  0  0  0  0  0  0  0
  1  2  1  0  0  0  0
  2 30  2  0  0  0  0
  2  3  1  0  0  0  0
  3  4  2  0  0  0  0
  4  5  1  0  0  0  0
  5  6  1  0  0  0  0
  5 29  2  0  0  0  0
  6  7  1  0  0  0  0
  6 14  1  0  0  0  0
  7 13  2  0  0  0  0
  7  8  1  0  0  0  0
  8  9  2  0  0  0  0
  9 10  1  0  0  0  0
 10 11  1  0  0  0  0
 10 12  2  0  0  0  0
 12 13  1  0  0  0  0
 14 19  2  0  0  0  0
 14 15  1  0  0  0  0
 15 16  2  0  0  0  0
 16 17  1  0  0  0  0
 17 18  2  0  0  0  0
 18 19  1  0  0  0  0
 19 20  1  0  0  0  0
 20 28  1  0  0  0  0
 20 21  2  0  0  0  0
 21 22  1  0  0  0  0
 22 23  1  1  0  0  0
 22 27  1  0  0  0  0
 23 24  1  0  0  0  0
 23 25  1  0  0  0  0
 23 26  1  0  0  0  0
 27 28  1  0  0  0  0
 29 30  1  0  0  0  0
M  END
> <NMREDATA_VERSION>
1.1

> <NMREDATA_LEVEL>
0

> <NMREDATA_SOLVENT>
CDCl3

> <NMREDATA_FORMULA>
C27H30NOP

> <NMREDATA_SMILES>
Cc1ccc(cc1)P(c1ccccc1C1=N[C@H](CO1)C(C)(C)C)c1ccc(cc1)C

> <NMREDATA_ASSIGNMENT>
P6, -6.98, 6

> <NMREDATA_1D_31P>
Larmor=121
-6.98, L=P6

$$$$
