
 OpenBabel06112616442D

 40 45  0  0  1  0  0  0  0  0999 V2000
   -5.1463    1.0462    0.0000 C   0  0  0  0  0  0  0  0  0  0  0  0
   -4.7650    0.1898    0.0000 C   0  0  0  0  0  0  0  0  0  0  0  0
   -3.8480   -0.0051    0.0000 C   0  0  0  0  0  0  0  0  0  0  0  0
   -3.7500   -0.9375    0.0000 C   0  0  2  0  0  0  0  0  0  0  0  0
    0.0000   -0.9375    0.0000 S   0  0  0  0  0  0  0  0  0  0  0  0
    0.0000   -1.8750    0.0000 O   0  0  0  0  0  0  0  0  0  0  0  0
    0.9375   -0.9375    0.0000 O   0  0  0  0  0  0  0  0  0  0  0  0
    0.0000    0.0000    0.0000 C   0  0  0  0  0  0  0  0  0  0  0  0
   -0.8119    0.4687    0.0000 C   0  0  0  0  0  0  0  0  0  0  0  0
   -0.8119    1.4062    0.0000 C   0  0  0  0  0  0  0  0  0  0  0  0
    0.0000    1.8750    0.0000 C   0  0  0  0  0  0  0  0  0  0  0  0
    0.8119    1.4063    0.0000 C   0  0  0  0  0  0  0  0  0  0  0  0
    0.8119    0.4688    0.0000 C   0  0  0  0  0  0  0  0  0  0  0  0
   -2.9915   -1.4885    0.0000 C   0  0  0  0  0  0  0  0  0  0  0  0
   -2.1351   -1.1072    0.0000 O   0  0  0  0  0  0  0  0  0  0  0  0
   -3.0895   -2.4209    0.0000 O   0  0  0  0  0  0  0  0  0  0  0  0
   -3.9460   -2.8022    0.0000 C   0  0  0  0  0  0  0  0  0  0  0  0
   -4.0440   -3.7346    0.0000 C   0  0  0  0  0  0  0  0  0  0  0  0
   -4.9004   -4.1159    0.0000 C   0  0  0  0  0  0  0  0  0  0  0  0
   -5.6589   -3.5649    0.0000 C   0  0  0  0  0  0  0  0  0  0  0  0
   -5.5609   -2.6325    0.0000 C   0  0  0  0  0  0  0  0  0  0  0  0
   -4.7044   -2.2512    0.0000 C   0  0  0  0  0  0  0  0  0  0  0  0
   -4.6064   -1.3188    0.0000 C   0  0  2  0  0  0  0  0  0  0  0  0
   -5.2338   -0.6221    0.0000 C   0  0  1  0  0  0  0  0  0  0  0  0
   -6.1661   -0.7201    0.0000 P   0  0  0  0  0  0  0  0  0  0  0  0
   -6.0681   -1.6525    0.0000 O   0  0  0  0  0  0  0  0  0  0  0  0
   -7.0985   -0.8181    0.0000 O   0  0  0  0  0  0  0  0  0  0  0  0
   -7.4798   -1.6746    0.0000 C   0  0  0  0  0  0  0  0  0  0  0  0
   -6.9288   -2.4330    0.0000 C   0  0  0  0  0  0  0  0  0  0  0  0
   -7.3101   -3.2895    0.0000 C   0  0  0  0  0  0  0  0  0  0  0  0
   -8.2424   -3.3875    0.0000 C   0  0  0  0  0  0  0  0  0  0  0  0
   -8.7935   -2.6290    0.0000 C   0  0  0  0  0  0  0  0  0  0  0  0
   -8.4122   -1.7726    0.0000 C   0  0  0  0  0  0  0  0  0  0  0  0
   -6.2641    0.2123    0.0000 O   0  0  0  0  0  0  0  0  0  0  0  0
   -7.1206    0.5936    0.0000 C   0  0  0  0  0  0  0  0  0  0  0  0
   -7.8790    0.0425    0.0000 C   0  0  0  0  0  0  0  0  0  0  0  0
   -8.7355    0.4238    0.0000 C   0  0  0  0  0  0  0  0  0  0  0  0
   -8.8335    1.3562    0.0000 C   0  0  0  0  0  0  0  0  0  0  0  0
   -8.0750    1.9072    0.0000 C   0  0  0  0  0  0  0  0  0  0  0  0
   -7.2186    1.5259    0.0000 C   0  0  0  0  0  0  0  0  0  0  0  0
  1  2  2  0  0  0  0
  2 24  1  0  0  0  0
  2  3  1  0  0  0  0
  3  4  1  0  0  0  0
  4 23  1  0  0  0  0
  4  5  1  1  0  0  0
  4 14  1  0  0  0  0
  5  6  2  0  0  0  0
  5  7  2  0  0  0  0
  5  8  1  0  0  0  0
  8 13  2  0  0  0  0
  8  9  1  0  0  0  0
  9 10  2  0  0  0  0
 10 11  1  0  0  0  0
 11 12  2  0  0  0  0
 12 13  1  0  0  0  0
 14 15  2  0  0  0  0
 14 16  1  0  0  0  0
 16 17  1  0  0  0  0
 17 22  2  0  0  0  0
 17 18  1  0  0  0  0
 18 19  2  0  0  0  0
 19 20  1  0  0  0  0
 20 21  2  0  0  0  0
 21 22  1  0  0  0  0
 23 22  1  6  0  0  0
 23 24  1  0  0  0  0
 24 25  1  1  0  0  0
 25 26  2  0  0  0  0
 25 27  1  0  0  0  0
 25 34  1  0  0  0  0
 27 28  1  0  0  0  0
 28 33  2  0  0  0  0
 28 29  1  0  0  0  0
 29 30  2  0  0  0  0
 30 31  1  0  0  0  0
 31 32  2  0  0  0  0
 32 33  1  0  0  0  0
 34 35  1  0  0  0  0
 35 40  2  0  0  0  0
 35 36  1  0  0  0  0
 36 37  2  0  0  0  0
 37 38  1  0  0  0  0
 38 39  2  0  0  0  0
 39 40  1  0  0  0  0
M  END
> <NMREDATA_VERSION>
1.1

> <NMREDATA_LEVEL>
0

> <NMREDATA_SOLVENT>
CDCl3

> <NMREDATA_FORMULA>
C31H25O7PS

> <NMREDATA_SMILES>
C=C1C[C@]2([C@@H]([C@H]1P(=O)(Oc1ccccc1)Oc1ccccc1)c1ccccc1OC2=O)S(=O)(=O)c1ccccc1

> <NMREDATA_ASSIGNMENT>
P25, 16.40, 25

> <NMREDATA_1D_31P>
Larmor=162
16.40, L=P25

$$$$
