
 OpenBabel06112616482D

 77 88  0  0  0  0  0  0  0  0999 V2000
    1.5836   -8.0728    0.0000 C    0  0  0  0  0  0  0  0  0  0  0  0
    0.9729   -7.4146    0.0000 C    0  0  0  0  0  0  0  0  0  0  0  0
    1.2375   -6.5565    0.0000 C    0  0  0  0  0  0  0  0  0  0  0  0
    2.1130   -6.3567    0.0000 C    0  0  0  0  0  0  0  0  0  0  0  0
    2.3777   -5.4986    0.0000 C    0  0  0  0  0  0  0  0  0  0  0  0
    1.6756   -4.9388    0.0000 C    0  0  0  0  0  0  0  0  0  0  0  0
    0.8980   -5.3878    0.0000 C    0  0  0  0  0  0  0  0  0  0  0  0
    0.8980   -6.2857    0.0000 C    0  0  0  0  0  0  0  0  0  0  0  0
    0.1203   -6.7347    0.0000 C    0  0  0  0  0  0  0  0  0  0  0  0
   -0.6574   -6.2857    0.0000 C    0  0  0  0  0  0  0  0  0  0  0  0
   -0.6574   -5.3878    0.0000 C    0  0  0  0  0  0  0  0  0  0  0  0
    0.1203   -4.9388    0.0000 C    0  0  0  0  0  0  0  0  0  0  0  0
    0.1203   -4.0408    0.0000 C    0  0  0  0  0  0  0  0  0  0  0  0
    0.8980   -3.5918    0.0000 C    0  0  0  0  0  0  0  0  0  0  0  0
    0.8980    0.0000    0.0000 Si   0  0  0  0  0  0  0  0  0  0  0  0
    1.7959    0.0000    0.0000 C    0  0  0  0  0  0  0  0  0  0  0  0
    2.2449    0.7777    0.0000 C    0  0  0  0  0  0  0  0  0  0  0  0
    3.1429    0.7777    0.0000 C    0  0  0  0  0  0  0  0  0  0  0  0
    3.5918    0.0000    0.0000 C    0  0  0  0  0  0  0  0  0  0  0  0
    4.4898    0.0000    0.0000 C    0  0  0  0  0  0  0  0  0  0  0  0
    3.1429   -0.7777    0.0000 C    0  0  0  0  0  0  0  0  0  0  0  0
    2.2449   -0.7777    0.0000 C    0  0  0  0  0  0  0  0  0  0  0  0
    0.8980    0.8980    0.0000 C    0  0  0  0  0  0  0  0  0  0  0  0
    0.1203    1.3469    0.0000 C    0  0  0  0  0  0  0  0  0  0  0  0
    0.1203    2.2449    0.0000 C    0  0  0  0  0  0  0  0  0  0  0  0
    0.8980    2.6939    0.0000 C    0  0  0  0  0  0  0  0  0  0  0  0
    0.8980    3.5918    0.0000 C    0  0  0  0  0  0  0  0  0  0  0  0
    1.6756    2.2449    0.0000 C    0  0  0  0  0  0  0  0  0  0  0  0
    1.6756    1.3469    0.0000 C    0  0  0  0  0  0  0  0  0  0  0  0
    0.0000    0.0000    0.0000 C    0  0  0  0  0  0  0  0  0  0  0  0
   -0.4490   -0.7777    0.0000 C    0  0  0  0  0  0  0  0  0  0  0  0
   -1.3469   -0.7777    0.0000 C    0  0  0  0  0  0  0  0  0  0  0  0
   -1.7959    0.0000    0.0000 C    0  0  0  0  0  0  0  0  0  0  0  0
   -2.6939    0.0000    0.0000 C    0  0  0  0  0  0  0  0  0  0  0  0
   -1.3469    0.7777    0.0000 C    0  0  0  0  0  0  0  0  0  0  0  0
   -0.4490    0.7777    0.0000 C    0  0  0  0  0  0  0  0  0  0  0  0
    1.6756   -4.0408    0.0000 C    0  0  0  0  0  0  0  0  0  0  0  0
    2.3777   -3.4809    0.0000 O    0  0  0  0  0  0  0  0  0  0  0  0
    3.2531   -3.6808    0.0000 P    0  0  0  0  0  0  0  0  0  0  0  0
    4.0890   -3.3527    0.0000 N    0  0  0  0  0  0  0  0  0  0  0  0
    4.0666   -2.4550    0.0000 C    0  0  0  0  0  0  0  0  0  0  0  0
    4.6265   -1.7530    0.0000 C    0  0  0  0  0  0  0  0  0  0  0  0
    5.5066   -1.5750    0.0000 C    0  0  0  0  0  0  0  0  0  0  0  0
    6.2952   -2.0045    0.0000 C    0  0  0  0  0  0  0  0  0  0  0  0
    6.6233   -2.8404    0.0000 C    0  0  0  0  0  0  0  0  0  0  0  0
    6.3373   -3.6916    0.0000 C    0  0  0  0  0  0  0  0  0  0  0  0
    5.5711   -4.1598    0.0000 C    0  0  0  0  0  0  0  0  0  0  0  0
    4.6832   -4.0260    0.0000 C    0  0  0  0  0  0  0  0  0  0  0  0
    3.3869   -2.7928    0.0000 O    0  0  0  0  0  0  0  0  0  0  0  0
    3.6427   -4.4898    0.0000 O    0  0  0  0  0  0  0  0  0  0  0  0
    3.2531   -5.2988    0.0000 C    0  0  0  0  0  0  0  0  0  0  0  0
    3.8639   -5.9571    0.0000 C    0  0  0  0  0  0  0  0  0  0  0  0
   10.8674   -4.3586    0.0000 Si   0  0  0  0  0  0  0  0  0  0  0  0
   11.0673   -5.2340    0.0000 C    0  0  0  0  0  0  0  0  0  0  0  0
   11.9253   -5.4987    0.0000 C    0  0  0  0  0  0  0  0  0  0  0  0
   12.1251   -6.3741    0.0000 C    0  0  0  0  0  0  0  0  0  0  0  0
   11.4669   -6.9849    0.0000 C    0  0  0  0  0  0  0  0  0  0  0  0
   11.6667   -7.8603    0.0000 C    0  0  0  0  0  0  0  0  0  0  0  0
   10.6088   -6.7202    0.0000 C    0  0  0  0  0  0  0  0  0  0  0  0
   10.4090   -5.8448    0.0000 C    0  0  0  0  0  0  0  0  0  0  0  0
   11.7429   -4.1587    0.0000 C    0  0  0  0  0  0  0  0  0  0  0  0
   12.0076   -3.3007    0.0000 C    0  0  0  0  0  0  0  0  0  0  0  0
   12.8830   -3.1009    0.0000 C    0  0  0  0  0  0  0  0  0  0  0  0
   13.4938   -3.7591    0.0000 C    0  0  0  0  0  0  0  0  0  0  0  0
   14.3692   -3.5593    0.0000 C    0  0  0  0  0  0  0  0  0  0  0  0
   13.2291   -4.6172    0.0000 C    0  0  0  0  0  0  0  0  0  0  0  0
   12.3537   -4.8170    0.0000 C    0  0  0  0  0  0  0  0  0  0  0  0
   10.6676   -3.4831    0.0000 C    0  0  0  0  0  0  0  0  0  0  0  0
    9.8096   -3.2184    0.0000 C    0  0  0  0  0  0  0  0  0  0  0  0
    9.6097   -2.3430    0.0000 C    0  0  0  0  0  0  0  0  0  0  0  0
   10.2680   -1.7322    0.0000 C    0  0  0  0  0  0  0  0  0  0  0  0
   10.0682   -0.8568    0.0000 C    0  0  0  0  0  0  0  0  0  0  0  0
   11.1261   -1.9969    0.0000 C    0  0  0  0  0  0  0  0  0  0  0  0
   11.3259   -2.8723    0.0000 C    0  0  0  0  0  0  0  0  0  0  0  0
    3.5992   -6.8151    0.0000 C    0  0  0  0  0  0  0  0  0  0  0  0
    2.7238   -7.0150    0.0000 C    0  0  0  0  0  0  0  0  0  0  0  0
    2.4591   -7.8730    0.0000 C    0  0  0  0  0  0  0  0  0  0  0  0
  1 77  1  0  0  0  0
  1  2  1  0  0  0  0
  2  3  1  0  0  0  0
  3  4  1  0  0  0  0
  4 76  1  0  0  0  0
  4  5  2  0  0  0  0
  5 51  1  0  0  0  0
  5  6  1  0  0  0  0
  6 37  1  0  0  0  0
  6  7  2  0  0  0  0
  7 12  1  0  0  0  0
  7  8  1  0  0  0  0
  8  9  1  0  0  0  0
  9 10  1  0  0  0  0
 10 11  1  0  0  0  0
 11 12  1  0  0  0  0
 12 13  2  0  0  0  0
 13 14  1  0  0  0  0
 14 15  1  0  0  0  0
 14 37  2  0  0  0  0
 15 16  1  0  0  0  0
 15 23  1  0  0  0  0
 15 30  1  0  0  0  0
 16 22  1  0  0  0  0
 16 17  2  0  0  0  0
 17 18  1  0  0  0  0
 18 19  2  0  0  0  0
 19 20  1  0  0  0  0
 19 21  1  0  0  0  0
 21 22  2  0  0  0  0
 23 29  1  0  0  0  0
 23 24  2  0  0  0  0
 24 25  1  0  0  0  0
 25 26  2  0  0  0  0
 26 27  1  0  0  0  0
 26 28  1  0  0  0  0
 28 29  2  0  0  0  0
 30 36  1  0  0  0  0
 30 31  2  0  0  0  0
 31 32  1  0  0  0  0
 32 33  2  0  0  0  0
 33 34  1  0  0  0  0
 33 35  1  0  0  0  0
 35 36  2  0  0  0  0
 37 38  1  0  0  0  0
 38 39  1  0  0  0  0
 39 40  1  0  0  0  0
 39 49  2  0  0  0  0
 39 50  1  0  0  0  0
 40 48  1  0  0  0  0
 40 41  1  0  0  0  0
 41 42  1  0  0  0  0
 42 43  1  0  0  0  0
 43 44  1  0  0  0  0
 44 45  1  0  0  0  0
 45 46  1  0  0  0  0
 46 47  1  0  0  0  0
 47 48  1  0  0  0  0
 50 51  1  0  0  0  0
 51 52  2  0  0  0  0
 52 53  1  0  0  0  0
 52 75  1  0  0  0  0
 53 54  1  0  0  0  0
 53 61  1  0  0  0  0
 53 68  1  0  0  0  0
 54 60  1  0  0  0  0
 54 55  2  0  0  0  0
 55 56  1  0  0  0  0
 56 57  2  0  0  0  0
 57 58  1  0  0  0  0
 57 59  1  0  0  0  0
 59 60  2  0  0  0  0
 61 67  1  0  0  0  0
 61 62  2  0  0  0  0
 62 63  1  0  0  0  0
 63 64  2  0  0  0  0
 64 65  1  0  0  0  0
 64 66  1  0  0  0  0
 66 67  2  0  0  0  0
 68 74  1  0  0  0  0
 68 69  2  0  0  0  0
 69 70  1  0  0  0  0
 70 71  2  0  0  0  0
 71 72  1  0  0  0  0
 71 73  1  0  0  0  0
 73 74  2  0  0  0  0
 75 76  2  0  0  0  0
 76 77  1  0  0  0  0
M  END
> <NMREDATA_VERSION>
1.1

> <NMREDATA_LEVEL>
0

> <NMREDATA_SOLVENT>
CDCl3

> <NMREDATA_FORMULA>
C70H76NO3PSi2

> <NMREDATA_SMILES>
Cc1ccc(cc1)[Si](c1cc2CCCCc2c2-c3c4CCCCc4cc(c3OP(=O)(Oc12)N1CCCCCCCC1)[Si](c1ccc(cc1)C)(c1ccc(cc1)C)c1ccc(cc1)C)(c1ccc(cc1)C)c1ccc(cc1)C

> <NMREDATA_ASSIGNMENT>
P39, 10.74, 39

> <NMREDATA_1D_31P>
Larmor=162
10.74, L=P39

$$$$
