
 OpenBabel06112616462D

 42 44  0  0  1  0  0  0  0  0999 V2000
    0.0000   -1.0000    0.0000 P    0  0  0  0  0  0  0  0  0  0  0  0
    0.0000   -2.0000    0.0000 O    0  0  0  0  0  0  0  0  0  0  0  0
   -1.0000   -1.0000    0.0000 C    0  0  0  0  0  0  0  0  0  0  0  0
   -1.5000   -0.1340    0.0000 C    0  0  0  0  0  0  0  0  0  0  0  0
   -2.5000   -0.1340    0.0000 C    0  0  0  0  0  0  0  0  0  0  0  0
   -3.0000   -1.0000    0.0000 C    0  0  0  0  0  0  0  0  0  0  0  0
   -4.0000   -1.0000    0.0000 C    0  0  0  0  0  0  0  0  0  0  0  0
   -4.5000   -0.1340    0.0000 C    0  0  0  0  0  0  0  0  0  0  0  0
   -4.0000    0.7321    0.0000 C    0  0  0  0  0  0  0  0  0  0  0  0
   -3.0000    0.7321    0.0000 C    0  0  0  0  0  0  0  0  0  0  0  0
   -2.6910    1.6831    0.0000 C    0  0  0  0  0  0  0  0  0  0  0  0
   -1.7399    1.9921    0.0000 C    0  0  0  0  0  0  0  0  0  0  0  0
   -1.5320    2.9703    0.0000 C    0  0  2  0  0  0  0  0  0  0  0  0
   -0.5810    3.2793    0.0000 N    0  0  0  0  0  0  0  0  0  0  0  0
   -2.2752    3.6394    0.0000 C    0  0  0  0  0  0  0  0  0  0  0  0
   -2.0672    4.6176    0.0000 O    0  0  0  0  0  0  0  0  0  0  0  0
   -3.2262    3.3304    0.0000 O    0  0  0  0  0  0  0  0  0  0  0  0
   -3.9694    3.9995    0.0000 C    0  0  0  0  0  0  0  0  0  0  0  0
   -3.7614    4.9777    0.0000 C    0  0  0  0  0  0  0  0  0  0  0  0
   -4.5046    5.6468    0.0000 C    0  0  0  0  0  0  0  0  0  0  0  0
   -4.2967    6.6249    0.0000 C    0  0  0  0  0  0  0  0  0  0  0  0
   -3.3456    6.9340    0.0000 C    0  0  0  0  0  0  0  0  0  0  0  0
   -2.6025    6.2648    0.0000 C    0  0  0  0  0  0  0  0  0  0  0  0
   -2.8104    5.2867    0.0000 C    0  0  0  0  0  0  0  0  0  0  0  0
   -3.5000    2.2709    0.0000 C    0  0  0  0  0  0  0  0  0  0  0  0
   -4.3090    1.6831    0.0000 N    0  0  0  0  0  0  0  0  0  0  0  0
   -5.2601    1.9921    0.0000 Si   0  0  0  0  0  0  0  0  0  0  0  0
   -5.5691    1.0411    0.0000 C    0  0  0  0  0  0  0  0  0  0  0  0
   -4.9000    0.2979    0.0000 C    0  0  0  0  0  0  0  0  0  0  0  0
   -6.5472    0.8332    0.0000 C    0  0  0  0  0  0  0  0  0  0  0  0
   -6.2111    2.3011    0.0000 C    0  0  0  0  0  0  0  0  0  0  0  0
   -6.9543    1.6320    0.0000 C    0  0  0  0  0  0  0  0  0  0  0  0
   -6.4190    3.2793    0.0000 C    0  0  0  0  0  0  0  0  0  0  0  0
   -4.9511    2.9432    0.0000 C    0  0  0  0  0  0  0  0  0  0  0  0
   -5.6202    3.6863    0.0000 C    0  0  0  0  0  0  0  0  0  0  0  0
   -3.9729    3.1511    0.0000 C    0  0  0  0  0  0  0  0  0  0  0  0
    1.0000   -1.0000    0.0000 O    0  0  0  0  0  0  0  0  0  0  0  0
    1.5000   -1.8660    0.0000 C    0  0  0  0  0  0  0  0  0  0  0  0
    2.5000   -1.8660    0.0000 C    0  0  0  0  0  0  0  0  0  0  0  0
    0.0000    0.0000    0.0000 O    0  0  0  0  0  0  0  0  0  0  0  0
    0.8660    0.5000    0.0000 C    0  0  0  0  0  0  0  0  0  0  0  0
    1.7321    0.0000    0.0000 C    0  0  0  0  0  0  0  0  0  0  0  0
  1  2  2  0  0  0  0
  1  3  1  0  0  0  0
  1 37  1  0  0  0  0
  1 40  1  0  0  0  0
  3  4  2  0  0  0  0
  4  5  1  0  0  0  0
  5 10  2  0  0  0  0
  5  6  1  0  0  0  0
  6  7  2  0  0  0  0
  7  8  1  0  0  0  0
  8  9  2  0  0  0  0
  9 26  1  0  0  0  0
  9 10  1  0  0  0  0
 10 11  1  0  0  0  0
 11 12  1  0  0  0  0
 11 25  2  0  0  0  0
 12 13  1  0  0  0  0
 13 14  1  1  0  0  0
 13 15  1  0  0  0  0
 15 16  2  0  0  0  0
 15 17  1  0  0  0  0
 17 18  1  0  0  0  0
 18 19  1  0  0  0  0
 19 24  2  0  0  0  0
 19 20  1  0  0  0  0
 20 21  2  0  0  0  0
 21 22  1  0  0  0  0
 22 23  2  0  0  0  0
 23 24  1  0  0  0  0
 25 26  1  0  0  0  0
 26 27  1  0  0  0  0
 27 28  1  0  0  0  0
 27 31  1  0  0  0  0
 27 34  1  0  0  0  0
 28 29  1  0  0  0  0
 28 30  1  0  0  0  0
 31 32  1  0  0  0  0
 31 33  1  0  0  0  0
 34 35  1  0  0  0  0
 34 36  1  0  0  0  0
 37 38  1  0  0  0  0
 38 39  1  0  0  0  0
 40 41  1  0  0  0  0
 41 42  1  0  0  0  0
M  END
> <NMREDATA_VERSION>
1.1

> <NMREDATA_LEVEL>
0

> <NMREDATA_SOLVENT>
CDCl3

> <NMREDATA_FORMULA>
C33H49N2O5PSi

> <NMREDATA_SMILES>
CCOP(=O)(/C=C/c1cccc2c1c(C[C@@H](C(=O)OCc1ccccc1)N)cn2[Si](C(C)C)(C(C)C)C(C)C)OCC

> <NMREDATA_ASSIGNMENT>
P1, 19.70, 1

> <NMREDATA_1D_31P>
Larmor=162
19.70, L=P1

$$$$
