
 OpenBabel06112616482D

 35 39  0  0  1  0  0  0  0  0999 V2000
   -3.3479    0.0878    0.0000 C   0  0  0  0  0  0  0  0  0  0  0  0
   -2.5388   -0.5000    0.0000 C   0  0  0  0  0  0  0  0  0  0  0  0
   -1.5878   -0.1910    0.0000 C   0  0  0  0  0  0  0  0  0  0  0  0
   -1.0000   -1.0000    0.0000 N   0  0  0  0  0  0  0  0  0  0  0  0
    0.0000   -1.0000    0.0000 P   0  0  0  0  0  0  0  0  0  0  0  0
    0.0000   -2.0000    0.0000 O   0  0  0  0  0  0  0  0  0  0  0  0
    1.0000   -1.0000    0.0000 C   0  0  0  0  0  0  0  0  0  0  0  0
    1.5000   -0.1340    0.0000 C   0  0  0  0  0  0  0  0  0  0  0  0
    2.5000   -0.1340    0.0000 C   0  0  0  0  0  0  0  0  0  0  0  0
    3.0000   -1.0000    0.0000 C   0  0  0  0  0  0  0  0  0  0  0  0
    2.5000   -1.8660    0.0000 C   0  0  0  0  0  0  0  0  0  0  0  0
    1.5000   -1.8660    0.0000 C   0  0  0  0  0  0  0  0  0  0  0  0
    0.0000    0.0000    0.0000 C   0  0  0  0  0  0  0  0  0  0  0  0
   -0.8660    0.5000    0.0000 C   0  0  0  0  0  0  0  0  0  0  0  0
   -0.8660    1.5000    0.0000 C   0  0  0  0  0  0  0  0  0  0  0  0
    0.0000    2.0000    0.0000 C   0  0  0  0  0  0  0  0  0  0  0  0
    0.8660    1.5000    0.0000 C   0  0  0  0  0  0  0  0  0  0  0  0
    0.8660    0.5000    0.0000 C   0  0  0  0  0  0  0  0  0  0  0  0
   -1.5878   -1.8090    0.0000 C   0  0  0  0  0  0  0  0  0  0  0  0
   -1.2788   -2.7601    0.0000 O   0  0  0  0  0  0  0  0  0  0  0  0
   -2.5388   -1.5000    0.0000 C   0  0  2  0  0  0  0  0  0  0  0  0
   -3.5334   -1.6045    0.0000 O   0  0  0  0  0  0  0  0  0  0  0  0
   -2.9456   -2.4135    0.0000 C   0  0  0  0  0  0  0  0  0  0  0  0
   -2.3578   -3.2226    0.0000 C   0  0  0  0  0  0  0  0  0  0  0  0
   -2.7645   -4.1361    0.0000 C   0  0  0  0  0  0  0  0  0  0  0  0
   -3.7591   -4.2406    0.0000 C   0  0  0  0  0  0  0  0  0  0  0  0
   -4.3468   -3.4316    0.0000 C   0  0  0  0  0  0  0  0  0  0  0  0
   -3.9401   -2.5181    0.0000 C   0  0  0  0  0  0  0  0  0  0  0  0
   -4.5279   -1.7091    0.0000 C   0  0  0  0  0  0  0  0  0  0  0  0
   -3.2433    1.0823    0.0000 C   0  0  0  0  0  0  0  0  0  0  0  0
   -4.0523    1.6701    0.0000 C   0  0  0  0  0  0  0  0  0  0  0  0
   -3.9478    2.6646    0.0000 C   0  0  0  0  0  0  0  0  0  0  0  0
   -3.0343    3.0714    0.0000 C   0  0  0  0  0  0  0  0  0  0  0  0
   -2.2253    2.4836    0.0000 C   0  0  0  0  0  0  0  0  0  0  0  0
   -2.3298    1.4890    0.0000 C   0  0  0  0  0  0  0  0  0  0  0  0
  1  2  2  3  0  0  0
  1 30  1  0  0  0  0
  2 21  1  0  0  0  0
  2  3  1  0  0  0  0
  3  4  1  0  0  0  0
  4  5  1  0  0  0  0
  4 19  1  0  0  0  0
  5  6  2  0  0  0  0
  5  7  1  0  0  0  0
  5 13  1  0  0  0  0
  7 12  2  0  0  0  0
  7  8  1  0  0  0  0
  8  9  2  0  0  0  0
  9 10  1  0  0  0  0
 10 11  2  0  0  0  0
 11 12  1  0  0  0  0
 13 18  2  0  0  0  0
 13 14  1  0  0  0  0
 14 15  2  0  0  0  0
 15 16  1  0  0  0  0
 16 17  2  0  0  0  0
 17 18  1  0  0  0  0
 19 20  2  0  0  0  0
 19 21  1  0  0  0  0
 21 22  1  6  0  0  0
 21 23  1  0  0  0  0
 23 28  2  0  0  0  0
 23 24  1  0  0  0  0
 24 25  2  0  0  0  0
 25 26  1  0  0  0  0
 26 27  2  0  0  0  0
 27 28  1  0  0  0  0
 28 29  1  0  0  0  0
 30 35  2  0  0  0  0
 30 31  1  0  0  0  0
 31 32  2  0  0  0  0
 32 33  1  0  0  0  0
 33 34  2  0  0  0  0
 34 35  1  0  0  0  0
M  END
> <NMREDATA_VERSION>
1.1

> <NMREDATA_LEVEL>
0

> <NMREDATA_SOLVENT>
CDCl3

> <NMREDATA_FORMULA>
C30H26NO3P

> <NMREDATA_SMILES>
Cc1ccccc1[C@@]1(O)C(=Cc2ccccc2)CN(C1=O)P(=O)(c1ccccc1)c1ccccc1

> <NMREDATA_ASSIGNMENT>
P5, -12.20, 5

> <NMREDATA_1D_31P>
Larmor=162
-12.20, L=P5

$$$$
