
 OpenBabel06112616472D

 36 41  0  0  1  0  0  0  0  0999 V2000
    7.1667   -1.2434    0.0000 C   0  0  0  0  0  0  0  0  0  0  0  0
    6.1722   -1.3480    0.0000 C   0  0  0  0  0  0  0  0  0  0  0  0
    5.5844   -0.5389    0.0000 C   0  0  0  0  0  0  0  0  0  0  0  0
    4.5898   -0.6435    0.0000 C   0  0  0  0  0  0  0  0  0  0  0  0
    4.1831   -1.5570    0.0000 C   0  0  0  0  0  0  0  0  0  0  0  0
    4.7709   -2.3660    0.0000 C   0  0  0  0  0  0  0  0  0  0  0  0
    5.7654   -2.2615    0.0000 C   0  0  0  0  0  0  0  0  0  0  0  0
    4.1831   -3.1750    0.0000 C   0  0  0  0  0  0  0  0  0  0  0  0
    4.4921   -4.1261    0.0000 C   0  0  0  0  0  0  0  0  0  0  0  0
    3.2321   -2.8660    0.0000 C   0  0  0  0  0  0  0  0  0  0  0  0
    3.2321   -1.8660    0.0000 N   0  0  0  0  0  0  0  0  0  0  0  0
    2.3660   -1.3660    0.0000 C   0  0  0  0  0  0  0  0  0  0  0  0
    2.3660   -0.3660    0.0000 O   0  0  0  0  0  0  0  0  0  0  0  0
    1.5000   -1.8660    0.0000 C   0  0  3  0  0  0  0  0  0  0  0  0
    0.5000   -1.8660    0.0000 C   0  0  0  0  0  0  0  0  0  0  0  0
    1.0000   -1.0000    0.0000 C   0  0  0  0  0  0  0  0  0  0  0  0
    0.0000   -1.0000    0.0000 P   0  0  0  0  0  0  0  0  0  0  0  0
    0.0000   -2.0000    0.0000 O   0  0  0  0  0  0  0  0  0  0  0  0
   -1.0000   -1.0000    0.0000 C   0  0  0  0  0  0  0  0  0  0  0  0
   -1.5000   -0.1340    0.0000 C   0  0  0  0  0  0  0  0  0  0  0  0
   -2.5000   -0.1340    0.0000 C   0  0  0  0  0  0  0  0  0  0  0  0
   -3.0000   -1.0000    0.0000 C   0  0  0  0  0  0  0  0  0  0  0  0
   -2.5000   -1.8660    0.0000 C   0  0  0  0  0  0  0  0  0  0  0  0
   -1.5000   -1.8660    0.0000 C   0  0  0  0  0  0  0  0  0  0  0  0
    0.0000    0.0000    0.0000 C   0  0  0  0  0  0  0  0  0  0  0  0
    0.8660    0.5000    0.0000 C   0  0  0  0  0  0  0  0  0  0  0  0
    0.8660    1.5000    0.0000 C   0  0  0  0  0  0  0  0  0  0  0  0
    0.0000    2.0000    0.0000 C   0  0  0  0  0  0  0  0  0  0  0  0
   -0.8660    1.5000    0.0000 C   0  0  0  0  0  0  0  0  0  0  0  0
   -0.8660    0.5000    0.0000 C   0  0  0  0  0  0  0  0  0  0  0  0
    1.5000   -2.8660    0.0000 C   0  0  0  0  0  0  0  0  0  0  0  0
    0.6340   -3.3660    0.0000 C   0  0  0  0  0  0  0  0  0  0  0  0
    0.6340   -4.3660    0.0000 C   0  0  0  0  0  0  0  0  0  0  0  0
    1.5000   -4.8660    0.0000 C   0  0  0  0  0  0  0  0  0  0  0  0
    2.3660   -4.3660    0.0000 C   0  0  0  0  0  0  0  0  0  0  0  0
    2.3660   -3.3660    0.0000 C   0  0  0  0  0  0  0  0  0  0  0  0
  1  2  1  0  0  0  0
  2  7  2  0  0  0  0
  2  3  1  0  0  0  0
  3  4  2  0  0  0  0
  4  5  1  0  0  0  0
  5 11  1  0  0  0  0
  5  6  2  0  0  0  0
  6  7  1  0  0  0  0
  6  8  1  0  0  0  0
  8  9  1  0  0  0  0
  8 10  2  0  0  0  0
 10 36  1  0  0  0  0
 10 11  1  0  0  0  0
 11 12  1  0  0  0  0
 12 13  2  0  0  0  0
 12 14  1  0  0  0  0
 14 15  1  0  0  0  0
 14 16  1  0  0  0  0
 14 31  1  0  0  0  0
 16 17  1  0  0  0  0
 17 18  2  0  0  0  0
 17 19  1  0  0  0  0
 17 25  1  0  0  0  0
 19 24  2  0  0  0  0
 19 20  1  0  0  0  0
 20 21  2  0  0  0  0
 21 22  1  0  0  0  0
 22 23  2  0  0  0  0
 23 24  1  0  0  0  0
 25 30  2  0  0  0  0
 25 26  1  0  0  0  0
 26 27  2  0  0  0  0
 27 28  1  0  0  0  0
 28 29  2  0  0  0  0
 29 30  1  0  0  0  0
 31 36  2  0  0  0  0
 31 32  1  0  0  0  0
 32 33  2  0  0  0  0
 33 34  1  0  0  0  0
 34 35  2  0  0  0  0
 35 36  1  0  0  0  0
M  END
> <NMREDATA_VERSION>
1.1

> <NMREDATA_LEVEL>
0

> <NMREDATA_SOLVENT>
CDCl3

> <NMREDATA_FORMULA>
C32H28NO2P

> <NMREDATA_SMILES>
Cc1ccc2c(c1)c(C)c1-c3ccccc3C(C(=O)n21)(C)CP(=O)(c1ccccc1)c1ccccc1

> <NMREDATA_ASSIGNMENT>
P17, 22.10, 17

> <NMREDATA_1D_31P>
Larmor=162
22.10, L=P17

$$$$
