
 OpenBabel06112616462D

 31 35  0  0  0  0  0  0  0  0999 V2000
   -0.8420   -1.4583    0.0000 C   0  0  0  0  0  0  0  0  0  0  0  0
   -0.8420   -2.4306    0.0000 C   0  0  0  0  0  0  0  0  0  0  0  0
   -1.6839   -2.9167    0.0000 C   0  0  0  0  0  0  0  0  0  0  0  0
   -2.5259   -2.4306    0.0000 C   0  0  0  0  0  0  0  0  0  0  0  0
   -2.5259   -1.4583    0.0000 C   0  0  0  0  0  0  0  0  0  0  0  0
   -1.6839   -0.9722    0.0000 C   0  0  0  0  0  0  0  0  0  0  0  0
    0.0000   -0.9722    0.0000 C   0  0  0  0  0  0  0  0  0  0  0  0
    0.8420   -1.4583    0.0000 C   0  0  0  0  0  0  0  0  0  0  0  0
    0.8420   -2.4306    0.0000 C   0  0  0  0  0  0  0  0  0  0  0  0
    1.6839   -2.9167    0.0000 C   0  0  0  0  0  0  0  0  0  0  0  0
    3.3679   -1.9444    0.0000 P   0  0  0  0  0  0  0  0  0  0  0  0
    4.2098   -2.4306    0.0000 C   0  0  0  0  0  0  0  0  0  0  0  0
    5.0518   -1.9444    0.0000 C   0  0  0  0  0  0  0  0  0  0  0  0
    5.8938   -2.4306    0.0000 C   0  0  0  0  0  0  0  0  0  0  0  0
    5.8938   -3.4028    0.0000 C   0  0  0  0  0  0  0  0  0  0  0  0
    5.0518   -3.8889    0.0000 C   0  0  0  0  0  0  0  0  0  0  0  0
    4.2098   -3.4028    0.0000 C   0  0  0  0  0  0  0  0  0  0  0  0
    3.3679   -0.9722    0.0000 C   0  0  0  0  0  0  0  0  0  0  0  0
    2.5259   -0.4861    0.0000 C   0  0  0  0  0  0  0  0  0  0  0  0
    2.5259    0.4861    0.0000 C   0  0  0  0  0  0  0  0  0  0  0  0
    3.3679    0.9722    0.0000 C   0  0  0  0  0  0  0  0  0  0  0  0
    4.2098    0.4861    0.0000 C   0  0  0  0  0  0  0  0  0  0  0  0
    4.2098   -0.4861    0.0000 C   0  0  0  0  0  0  0  0  0  0  0  0
    1.6839   -3.8889    0.0000 C   0  0  0  0  0  0  0  0  0  0  0  0
    0.8420   -4.3750    0.0000 C   0  0  0  0  0  0  0  0  0  0  0  0
    0.0000   -3.8889    0.0000 C   0  0  0  0  0  0  0  0  0  0  0  0
    0.0000   -2.9167    0.0000 C   0  0  0  0  0  0  0  0  0  0  0  0
    1.6839   -0.9722    0.0000 C   0  0  0  0  0  0  0  0  0  0  0  0
    1.6839    0.0000    0.0000 C   0  0  0  0  0  0  0  0  0  0  0  0
    0.8420    0.4861    0.0000 C   0  0  0  0  0  0  0  0  0  0  0  0
    0.0000    0.0000    0.0000 C   0  0  0  0  0  0  0  0  0  0  0  0
  1  6  2  0  0  0  0
  1  2  1  0  0  0  0
  1  7  1  0  0  0  0
  2  3  2  0  0  0  0
  3  4  1  0  0  0  0
  4  5  2  0  0  0  0
  5  6  1  0  0  0  0
  7 31  2  0  0  0  0
  7  8  1  0  0  0  0
  8  9  1  0  0  0  0
  8 28  2  0  0  0  0
  9 27  2  0  0  0  0
  9 10  1  0  0  0  0
 10 11  1  0  0  0  0
 10 24  2  0  0  0  0
 11 12  1  0  0  0  0
 11 18  1  0  0  0  0
 12 17  2  0  0  0  0
 12 13  1  0  0  0  0
 13 14  2  0  0  0  0
 14 15  1  0  0  0  0
 15 16  2  0  0  0  0
 16 17  1  0  0  0  0
 18 23  2  0  0  0  0
 18 19  1  0  0  0  0
 19 20  2  0  0  0  0
 20 21  1  0  0  0  0
 21 22  2  0  0  0  0
 22 23  1  0  0  0  0
 24 25  1  0  0  0  0
 25 26  2  0  0  0  0
 26 27  1  0  0  0  0
 28 29  1  0  0  0  0
 29 30  2  0  0  0  0
 30 31  1  0  0  0  0
M  END
> <NMREDATA_VERSION>
1.1

> <NMREDATA_LEVEL>
0

> <NMREDATA_SOLVENT>
CDCl3

> <NMREDATA_FORMULA>
C30H23P

> <NMREDATA_SMILES>
c1ccc(cc1)c1ccccc1c1ccccc1P(c1ccccc1)c1ccccc1

> <NMREDATA_ASSIGNMENT>
P11, -14.30, 11

> <NMREDATA_1D_31P>
Larmor=162
-14.30, L=P11

$$$$
