
 OpenBabel06112616482D

 42 43  0  0  1  0  0  0  0  0999 V2000
   -1.5000   -0.1340    0.0000 C    0  0  0  0  0  0  0  0  0  0  0  0
   -1.0000   -1.0000    0.0000 C    0  0  0  0  0  0  0  0  0  0  0  0
   -1.5000   -1.8660    0.0000 C    0  0  0  0  0  0  0  0  0  0  0  0
    0.0000   -1.0000    0.0000 Si   0  0  0  0  0  0  0  0  0  0  0  0
    0.0000   -2.0000    0.0000 C    0  0  0  0  0  0  0  0  0  0  0  0
   -0.8660   -2.5000    0.0000 C    0  0  0  0  0  0  0  0  0  0  0  0
    0.8660   -2.5000    0.0000 C    0  0  0  0  0  0  0  0  0  0  0  0
    1.0000   -1.0000    0.0000 C    0  0  0  0  0  0  0  0  0  0  0  0
    1.5000   -1.8660    0.0000 C    0  0  0  0  0  0  0  0  0  0  0  0
    1.5000   -0.1340    0.0000 C    0  0  0  0  0  0  0  0  0  0  0  0
    0.0000    0.0000    0.0000 C    0  0  0  0  0  0  0  0  0  0  0  0
    0.0000    1.0000    0.0000 C    0  0  0  0  0  0  0  0  0  0  0  0
    0.0000    2.0000    0.0000 C    0  0  1  0  0  0  0  0  0  0  0  0
    0.8660    2.5000    0.0000 C    0  0  0  0  0  0  0  0  0  0  0  0
    1.7321    2.0000    0.0000 C    0  0  0  0  0  0  0  0  0  0  0  0
    2.2321    1.1340    0.0000 C    0  0  0  0  0  0  0  0  0  0  0  0
    1.2321    1.1340    0.0000 C    0  0  0  0  0  0  0  0  0  0  0  0
    2.5981    2.5000    0.0000 C    0  0  0  0  0  0  0  0  0  0  0  0
    2.5981    3.5000    0.0000 O    0  0  0  0  0  0  0  0  0  0  0  0
    3.4641    2.0000    0.0000 O    0  0  0  0  0  0  0  0  0  0  0  0
    4.3301    2.5000    0.0000 C    0  0  0  0  0  0  0  0  0  0  0  0
    5.3301    2.5000    0.0000 C    0  0  0  0  0  0  0  0  0  0  0  0
    4.8301    1.6340    0.0000 C    0  0  0  0  0  0  0  0  0  0  0  0
    4.3301    3.5000    0.0000 C    0  0  0  0  0  0  0  0  0  0  0  0
   -0.8660    2.5000    0.0000 P    0  0  0  0  0  0  0  0  0  0  0  0
   -0.3660    3.3660    0.0000 O    0  0  0  0  0  0  0  0  0  0  0  0
   -0.8660    4.2321    0.0000 C    0  0  0  0  0  0  0  0  0  0  0  0
   -0.3660    5.0981    0.0000 C    0  0  0  0  0  0  0  0  0  0  0  0
   -0.8660    5.9641    0.0000 C    0  0  0  0  0  0  0  0  0  0  0  0
   -0.3660    6.8301    0.0000 C    0  0  0  0  0  0  0  0  0  0  0  0
    0.6340    6.8301    0.0000 C    0  0  0  0  0  0  0  0  0  0  0  0
    1.1340    5.9641    0.0000 C    0  0  0  0  0  0  0  0  0  0  0  0
    0.6340    5.0981    0.0000 C    0  0  0  0  0  0  0  0  0  0  0  0
   -1.7321    3.0000    0.0000 O    0  0  0  0  0  0  0  0  0  0  0  0
   -2.5981    2.5000    0.0000 C    0  0  0  0  0  0  0  0  0  0  0  0
   -3.4641    3.0000    0.0000 C    0  0  0  0  0  0  0  0  0  0  0  0
   -4.3301    2.5000    0.0000 C    0  0  0  0  0  0  0  0  0  0  0  0
   -5.1962    3.0000    0.0000 C    0  0  0  0  0  0  0  0  0  0  0  0
   -5.1962    4.0000    0.0000 C    0  0  0  0  0  0  0  0  0  0  0  0
   -4.3301    4.5000    0.0000 C    0  0  0  0  0  0  0  0  0  0  0  0
   -3.4641    4.0000    0.0000 C    0  0  0  0  0  0  0  0  0  0  0  0
   -1.3660    1.6340    0.0000 O    0  0  0  0  0  0  0  0  0  0  0  0
  1  2  1  0  0  0  0
  2  3  1  0  0  0  0
  2  4  1  0  0  0  0
  4  5  1  0  0  0  0
  4  8  1  0  0  0  0
  4 11  1  0  0  0  0
  5  6  1  0  0  0  0
  5  7  1  0  0  0  0
  8  9  1  0  0  0  0
  8 10  1  0  0  0  0
 11 12  3  0  0  0  0
 13 12  1  6  0  0  0
 13 14  1  0  0  0  0
 13 25  1  0  0  0  0
 14 15  1  0  0  0  0
 15 16  1  0  0  0  0
 15 17  1  0  0  0  0
 15 18  1  0  0  0  0
 18 19  2  0  0  0  0
 18 20  1  0  0  0  0
 20 21  1  0  0  0  0
 21 22  1  0  0  0  0
 21 23  1  0  0  0  0
 21 24  1  0  0  0  0
 25 26  1  0  0  0  0
 25 34  1  0  0  0  0
 25 42  2  0  0  0  0
 26 27  1  0  0  0  0
 27 28  1  0  0  0  0
 28 33  2  0  0  0  0
 28 29  1  0  0  0  0
 29 30  2  0  0  0  0
 30 31  1  0  0  0  0
 31 32  2  0  0  0  0
 32 33  1  0  0  0  0
 34 35  1  0  0  0  0
 35 36  1  0  0  0  0
 36 41  2  0  0  0  0
 36 37  1  0  0  0  0
 37 38  2  0  0  0  0
 38 39  1  0  0  0  0
 39 40  2  0  0  0  0
 40 41  1  0  0  0  0
M  END
> <NMREDATA_VERSION>
1.1

> <NMREDATA_LEVEL>
0

> <NMREDATA_SOLVENT>
CDCl3

> <NMREDATA_FORMULA>
C35H53O5PSi

> <NMREDATA_SMILES>
CC([Si](C(C)C)(C(C)C)C#C[C@H](P(=O)(OCc1ccccc1)OCc1ccccc1)CC(C(=O)OC(C)(C)C)(C)C)C

> <NMREDATA_ASSIGNMENT>
P25, 25.23, 25

> <NMREDATA_1D_31P>
Larmor=162
25.23, L=P25

$$$$
