
 OpenBabel06112616452D

 66 75  0  0  1  0  0  0  0  0999 V2000
   -3.2741    2.2225    0.0000 C   0  0  0  0  0  0  0  0  0  0  0  0
   -3.0662    1.2443    0.0000 C   0  0  2  0  0  0  0  0  0  0  0  0
   -3.8093    0.5752    0.0000 O   0  0  0  0  0  0  0  0  0  0  0  0
   -4.7604    0.8842    0.0000 P   0  0  3  0  0  0  0  0  0  0  0  0
   -5.0694    1.8353    0.0000 N   0  0  0  0  0  0  0  0  0  0  0  0
   -4.4816    2.6443    0.0000 C   0  0  0  0  0  0  0  0  0  0  0  0
   -3.4871    2.5398    0.0000 C   0  0  0  0  0  0  0  0  0  0  0  0
   -2.8993    3.3488    0.0000 C   0  0  0  0  0  0  0  0  0  0  0  0
   -3.3060    4.2623    0.0000 C   0  0  0  0  0  0  0  0  0  0  0  0
   -4.3006    4.3669    0.0000 C   0  0  0  0  0  0  0  0  0  0  0  0
   -4.8883    3.5578    0.0000 C   0  0  0  0  0  0  0  0  0  0  0  0
   -6.0694    1.8353    0.0000 C   0  0  1  0  0  0  0  0  0  0  0  0
   -6.6572    2.6443    0.0000 C   0  0  0  0  0  0  0  0  0  0  0  0
   -6.2504    3.5578    0.0000 C   0  0  0  0  0  0  0  0  0  0  0  0
   -6.8382    4.3669    0.0000 C   0  0  0  0  0  0  0  0  0  0  0  0
   -7.8327    4.2623    0.0000 C   0  0  0  0  0  0  0  0  0  0  0  0
   -8.2395    3.3488    0.0000 C   0  0  0  0  0  0  0  0  0  0  0  0
   -7.6517    2.5398    0.0000 C   0  0  0  0  0  0  0  0  0  0  0  0
   -6.3784    0.8842    0.0000 C   0  0  2  0  0  0  0  0  0  0  0  0
   -7.3295    0.5752    0.0000 C   0  0  0  0  0  0  0  0  0  0  0  0
   -8.0726    1.2443    0.0000 C   0  0  0  0  0  0  0  0  0  0  0  0
   -9.0237    0.9353    0.0000 C   0  0  0  0  0  0  0  0  0  0  0  0
   -9.2316   -0.0428    0.0000 C   0  0  0  0  0  0  0  0  0  0  0  0
   -8.4884   -0.7120    0.0000 C   0  0  0  0  0  0  0  0  0  0  0  0
   -7.5374   -0.4029    0.0000 C   0  0  0  0  0  0  0  0  0  0  0  0
   -5.5694    0.2964    0.0000 N   0  0  0  0  0  0  0  0  0  0  0  0
   -5.5694   -0.7036    0.0000 C   0  0  0  0  0  0  0  0  0  0  0  0
   -6.4354   -1.2036    0.0000 C   0  0  0  0  0  0  0  0  0  0  0  0
   -6.4354   -2.2036    0.0000 C   0  0  0  0  0  0  0  0  0  0  0  0
   -5.5694   -2.7036    0.0000 C   0  0  0  0  0  0  0  0  0  0  0  0
   -4.7034   -2.2036    0.0000 C   0  0  0  0  0  0  0  0  0  0  0  0
   -4.7034   -1.2036    0.0000 C   0  0  0  0  0  0  0  0  0  0  0  0
   -2.1151    0.9353    0.0000 C   0  0  0  0  0  0  0  0  0  0  0  0
   -1.3720    1.6044    0.0000 C   0  0  0  0  0  0  0  0  0  0  0  0
   -0.4209    1.2954    0.0000 C   0  0  1  0  0  0  0  0  0  0  0  0
   -0.2130    0.3173    0.0000 C   0  0  0  0  0  0  0  0  0  0  0  0
    0.3222    1.9646    0.0000 O   0  0  0  0  0  0  0  0  0  0  0  0
    1.2733    1.6555    0.0000 P   0  0  3  0  0  0  0  0  0  0  0  0
    2.0823    2.2433    0.0000 N   0  0  0  0  0  0  0  0  0  0  0  0
    2.0823    3.2433    0.0000 C   0  0  0  0  0  0  0  0  0  0  0  0
    1.2163    3.7433    0.0000 C   0  0  0  0  0  0  0  0  0  0  0  0
    1.2163    4.7433    0.0000 C   0  0  0  0  0  0  0  0  0  0  0  0
    2.0823    5.2433    0.0000 C   0  0  0  0  0  0  0  0  0  0  0  0
    2.9483    4.7433    0.0000 C   0  0  0  0  0  0  0  0  0  0  0  0
    2.9483    3.7433    0.0000 C   0  0  0  0  0  0  0  0  0  0  0  0
    2.8913    1.6555    0.0000 C   0  0  2  0  0  0  0  0  0  0  0  0
    3.8424    1.9646    0.0000 C   0  0  0  0  0  0  0  0  0  0  0  0
    4.0503    2.9427    0.0000 C   0  0  0  0  0  0  0  0  0  0  0  0
    5.0013    3.2517    0.0000 C   0  0  0  0  0  0  0  0  0  0  0  0
    5.7445    2.5826    0.0000 C   0  0  0  0  0  0  0  0  0  0  0  0
    5.5366    1.6044    0.0000 C   0  0  0  0  0  0  0  0  0  0  0  0
    4.5855    1.2954    0.0000 C   0  0  0  0  0  0  0  0  0  0  0  0
    2.5823    0.7045    0.0000 C   0  0  1  0  0  0  0  0  0  0  0  0
    3.1701   -0.1045    0.0000 C   0  0  0  0  0  0  0  0  0  0  0  0
    4.1646    0.0000    0.0000 C   0  0  0  0  0  0  0  0  0  0  0  0
    4.7524   -0.8090    0.0000 C   0  0  0  0  0  0  0  0  0  0  0  0
    4.3457   -1.7226    0.0000 C   0  0  0  0  0  0  0  0  0  0  0  0
    3.3511   -1.8271    0.0000 C   0  0  0  0  0  0  0  0  0  0  0  0
    2.7634   -1.0181    0.0000 C   0  0  0  0  0  0  0  0  0  0  0  0
    1.5823    0.7045    0.0000 N   0  0  0  0  0  0  0  0  0  0  0  0
    0.9945   -0.1045    0.0000 C   0  0  0  0  0  0  0  0  0  0  0  0
    1.4013   -1.0181    0.0000 C   0  0  0  0  0  0  0  0  0  0  0  0
    0.8135   -1.8271    0.0000 C   0  0  0  0  0  0  0  0  0  0  0  0
   -0.1810   -1.7226    0.0000 C   0  0  0  0  0  0  0  0  0  0  0  0
   -0.5878   -0.8090    0.0000 C   0  0  0  0  0  0  0  0  0  0  0  0
    0.0000    0.0000    0.0000 C   0  0  0  0  0  0  0  0  0  0  0  0
  2  1  1  1  0  0  0
  2  3  1  0  0  0  0
  2 33  1  0  0  0  0
  3  4  1  0  0  0  0
  4 26  1  0  0  0  0
  4  5  1  0  0  0  0
  5  6  1  0  0  0  0
  5 12  1  0  0  0  0
  6 11  2  0  0  0  0
  6  7  1  0  0  0  0
  7  8  2  0  0  0  0
  8  9  1  0  0  0  0
  9 10  2  0  0  0  0
 10 11  1  0  0  0  0
 12 13  1  6  0  0  0
 12 19  1  0  0  0  0
 13 18  2  0  0  0  0
 13 14  1  0  0  0  0
 14 15  2  0  0  0  0
 15 16  1  0  0  0  0
 16 17  2  0  0  0  0
 17 18  1  0  0  0  0
 19 20  1  1  0  0  0
 19 26  1  0  0  0  0
 20 25  2  0  0  0  0
 20 21  1  0  0  0  0
 21 22  2  0  0  0  0
 22 23  1  0  0  0  0
 23 24  2  0  0  0  0
 24 25  1  0  0  0  0
 26 27  1  0  0  0  0
 27 32  2  0  0  0  0
 27 28  1  0  0  0  0
 28 29  2  0  0  0  0
 29 30  1  0  0  0  0
 30 31  2  0  0  0  0
 31 32  1  0  0  0  0
 33 34  1  0  0  0  0
 34 35  1  0  0  0  0
 35 36  1  6  0  0  0
 35 37  1  0  0  0  0
 37 38  1  0  0  0  0
 38 60  1  0  0  0  0
 38 39  1  0  0  0  0
 39 40  1  0  0  0  0
 39 46  1  0  0  0  0
 40 45  2  0  0  0  0
 40 41  1  0  0  0  0
 41 42  2  0  0  0  0
 42 43  1  0  0  0  0
 43 44  2  0  0  0  0
 44 45  1  0  0  0  0
 46 47  1  6  0  0  0
 46 53  1  0  0  0  0
 47 52  2  0  0  0  0
 47 48  1  0  0  0  0
 48 49  2  0  0  0  0
 49 50  1  0  0  0  0
 50 51  2  0  0  0  0
 51 52  1  0  0  0  0
 53 54  1  1  0  0  0
 53 60  1  0  0  0  0
 54 59  2  0  0  0  0
 54 55  1  0  0  0  0
 55 56  2  0  0  0  0
 56 57  1  0  0  0  0
 57 58  2  0  0  0  0
 58 59  1  0  0  0  0
 60 61  1  0  0  0  0
 61 66  2  0  0  0  0
 61 62  1  0  0  0  0
 62 63  2  0  0  0  0
 63 64  1  0  0  0  0
 64 65  2  0  0  0  0
 65 66  1  0  0  0  0
M  END
> <NMREDATA_VERSION>
1.1

> <NMREDATA_LEVEL>
0

> <NMREDATA_SOLVENT>
CDCl3

> <NMREDATA_FORMULA>
C58H56N4O2P2

> <NMREDATA_SMILES>
C[C@H](OP1N(c2ccccc2)[C@H]([C@@H](N1c1ccccc1)c1ccccc1)c1ccccc1)CC[C@H](OP1N(c2ccccc2)[C@@H]([C@H](N1c1ccccc1)c1ccccc1)c1ccccc1)C

> <NMREDATA_ASSIGNMENT>
P4, 127.93, 4
P38, 127.93, 38

> <NMREDATA_1D_31P>
Larmor=162
127.93, L=P4
127.93, L=P38

$$$$
