
 OpenBabel06112616452D

 29 33  0  0  1  0  0  0  0  0999 V2000
   -3.8824    2.3916    0.0000 C   0  0  0  0  0  0  0  0  0  0  0  0
   -3.3971    1.5511    0.0000 C   0  0  0  0  0  0  0  0  0  0  0  0
   -2.4265    1.5511    0.0000 C   0  0  0  0  0  0  0  0  0  0  0  0
   -1.9412    0.7105    0.0000 C   0  0  0  0  0  0  0  0  0  0  0  0
   -2.4265   -0.1300    0.0000 C   0  0  0  0  0  0  0  0  0  0  0  0
   -3.3971   -0.1300    0.0000 C   0  0  0  0  0  0  0  0  0  0  0  0
   -3.8824    0.7105    0.0000 C   0  0  0  0  0  0  0  0  0  0  0  0
   -3.8824   -0.9706    0.0000 O   0  0  0  0  0  0  0  0  0  0  0  0
   -3.3971   -1.8111    0.0000 C   0  0  0  0  0  0  0  0  0  0  0  0
   -3.8824   -2.6517    0.0000 C   0  0  0  0  0  0  0  0  0  0  0  0
   -3.3971   -3.4923    0.0000 C   0  0  0  0  0  0  0  0  0  0  0  0
   -2.4265   -3.4923    0.0000 C   0  0  0  0  0  0  0  0  0  0  0  0
   -1.9412   -2.6517    0.0000 C   0  0  0  0  0  0  0  0  0  0  0  0
   -2.4265   -1.8111    0.0000 C   0  0  0  0  0  0  0  0  0  0  0  0
   -1.9412   -0.9706    0.0000 C   0  0  3  0  0  0  0  0  0  0  0  0
    0.0000   -0.9706    0.0000 P   0  0  0  0  0  0  0  0  0  0  0  0
    0.0000   -1.9412    0.0000 O   0  0  0  0  0  0  0  0  0  0  0  0
    0.9706   -0.9706    0.0000 C   0  0  0  0  0  0  0  0  0  0  0  0
    1.4559   -0.1300    0.0000 C   0  0  0  0  0  0  0  0  0  0  0  0
    2.4265   -0.1300    0.0000 C   0  0  0  0  0  0  0  0  0  0  0  0
    2.9118   -0.9706    0.0000 C   0  0  0  0  0  0  0  0  0  0  0  0
    2.4265   -1.8111    0.0000 C   0  0  0  0  0  0  0  0  0  0  0  0
    1.4559   -1.8111    0.0000 C   0  0  0  0  0  0  0  0  0  0  0  0
    0.0000    0.0000    0.0000 C   0  0  0  0  0  0  0  0  0  0  0  0
   -0.8406    0.4853    0.0000 C   0  0  0  0  0  0  0  0  0  0  0  0
   -0.8406    1.4559    0.0000 C   0  0  0  0  0  0  0  0  0  0  0  0
    0.0000    1.9412    0.0000 C   0  0  0  0  0  0  0  0  0  0  0  0
    0.8406    1.4559    0.0000 C   0  0  0  0  0  0  0  0  0  0  0  0
    0.8406    0.4853    0.0000 C   0  0  0  0  0  0  0  0  0  0  0  0
  1  2  1  0  0  0  0
  2  7  2  0  0  0  0
  2  3  1  0  0  0  0
  3  4  2  0  0  0  0
  4  5  1  0  0  0  0
  5 15  1  0  0  0  0
  5  6  2  0  0  0  0
  6  7  1  0  0  0  0
  6  8  1  0  0  0  0
  8  9  1  0  0  0  0
  9 14  2  0  0  0  0
  9 10  1  0  0  0  0
 10 11  2  0  0  0  0
 11 12  1  0  0  0  0
 12 13  2  0  0  0  0
 13 14  1  0  0  0  0
 14 15  1  0  0  0  0
 15 16  1  0  0  0  0
 16 17  2  0  0  0  0
 16 18  1  0  0  0  0
 16 24  1  0  0  0  0
 18 23  2  0  0  0  0
 18 19  1  0  0  0  0
 19 20  2  0  0  0  0
 20 21  1  0  0  0  0
 21 22  2  0  0  0  0
 22 23  1  0  0  0  0
 24 29  2  0  0  0  0
 24 25  1  0  0  0  0
 25 26  2  0  0  0  0
 26 27  1  0  0  0  0
 27 28  2  0  0  0  0
 28 29  1  0  0  0  0
M  END
> <NMREDATA_VERSION>
1.1

> <NMREDATA_LEVEL>
0

> <NMREDATA_SOLVENT>
CDCl3

> <NMREDATA_FORMULA>
C26H21O2P

> <NMREDATA_SMILES>
Cc1ccc2c(c1)Oc1c(C2P(=O)(c2ccccc2)c2ccccc2)cccc1

> <NMREDATA_ASSIGNMENT>
P16, 30.20, 16

> <NMREDATA_1D_31P>
Larmor=162
30.20, L=P16

$$$$
