
 OpenBabel06112616472D

 26 27  0  0  1  0  0  0  0  0999 V2000
    2.7321    0.0000    0.0000 O    0  0  0  0  0  0  0  0  0  0  0  0
    2.7321   -1.0000    0.0000 C    0  0  0  0  0  0  0  0  0  0  0  0
    3.5981   -1.5000    0.0000 C    0  0  0  0  0  0  0  0  0  0  0  0
    4.4641   -1.0000    0.0000 C    0  0  0  0  0  0  0  0  0  0  0  0
    5.3301   -1.5000    0.0000 C    0  0  0  0  0  0  0  0  0  0  0  0
    6.1962   -1.0000    0.0000 Cl   0  0  0  0  0  0  0  0  0  0  0  0
    5.3301   -2.5000    0.0000 C    0  0  0  0  0  0  0  0  0  0  0  0
    4.4641   -3.0000    0.0000 C    0  0  0  0  0  0  0  0  0  0  0  0
    4.4641   -4.0000    0.0000 Cl   0  0  0  0  0  0  0  0  0  0  0  0
    3.5981   -2.5000    0.0000 C    0  0  0  0  0  0  0  0  0  0  0  0
    2.7321   -3.0000    0.0000 O    0  0  0  0  0  0  0  0  0  0  0  0
    1.8660   -2.5000    0.0000 C    0  0  0  0  0  0  0  0  0  0  0  0
    1.8660   -1.5000    0.0000 C    0  0  2  0  0  0  0  0  0  0  0  0
    1.0000   -1.0000    0.0000 C    0  0  0  0  0  0  0  0  0  0  0  0
    1.0000    0.0000    0.0000 P    0  0  0  0  0  0  0  0  0  0  0  0
    2.0000    0.0000    0.0000 O    0  0  0  0  0  0  0  0  0  0  0  0
    1.0000    1.0000    0.0000 O    0  0  0  0  0  0  0  0  0  0  0  0
    1.8660    1.5000    0.0000 C    0  0  0  0  0  0  0  0  0  0  0  0
    2.3660    2.3660    0.0000 C    0  0  0  0  0  0  0  0  0  0  0  0
    1.3660    2.3660    0.0000 C    0  0  0  0  0  0  0  0  0  0  0  0
    2.7321    1.0000    0.0000 C    0  0  0  0  0  0  0  0  0  0  0  0
    0.0000    0.0000    0.0000 O    0  0  0  0  0  0  0  0  0  0  0  0
   -0.5000   -0.8660    0.0000 C    0  0  0  0  0  0  0  0  0  0  0  0
   -0.5000   -1.8660    0.0000 C    0  0  0  0  0  0  0  0  0  0  0  0
    0.3660   -1.3660    0.0000 C    0  0  0  0  0  0  0  0  0  0  0  0
   -1.5000   -0.8660    0.0000 C    0  0  0  0  0  0  0  0  0  0  0  0
  1  2  2  0  0  0  0
  2 13  1  0  0  0  0
  2  3  1  0  0  0  0
  3 10  2  0  0  0  0
  3  4  1  0  0  0  0
  4  5  2  0  0  0  0
  5  6  1  0  0  0  0
  5  7  1  0  0  0  0
  7  8  2  0  0  0  0
  8  9  1  0  0  0  0
  8 10  1  0  0  0  0
 10 11  1  0  0  0  0
 11 12  1  0  0  0  0
 12 13  1  0  0  0  0
 13 14  1  6  0  0  0
 14 15  1  0  0  0  0
 15 16  2  0  0  0  0
 15 17  1  0  0  0  0
 15 22  1  0  0  0  0
 17 18  1  0  0  0  0
 18 19  1  0  0  0  0
 18 20  1  0  0  0  0
 18 21  1  0  0  0  0
 22 23  1  0  0  0  0
 23 24  1  0  0  0  0
 23 25  1  0  0  0  0
 23 26  1  0  0  0  0
M  END
> <NMREDATA_VERSION>
1.1

> <NMREDATA_LEVEL>
0

> <NMREDATA_SOLVENT>
CDCl3

> <NMREDATA_FORMULA>
C18H25Cl2O5P

> <NMREDATA_SMILES>
Clc1cc(Cl)c2c(c1)C(=O)[C@H](CO2)CP(=O)(OC(C)(C)C)OC(C)(C)C

> <NMREDATA_ASSIGNMENT>
P15, 28.54, 15

> <NMREDATA_1D_31P>
Larmor=162
28.54, L=P15

$$$$
