
 OpenBabel06112616452D

 49 56  0  0  1  0  0  0  0  0999 V2000
    0.9866   -2.9597    0.0000 C   0  0  0  0  0  0  0  0  0  0  0  0
    0.1322   -2.4664    0.0000 C   0  0  0  0  0  0  0  0  0  0  0  0
    0.1322   -1.4798    0.0000 C   0  0  0  0  0  0  0  0  0  0  0  0
    0.9866   -0.9866    0.0000 C   0  0  0  0  0  0  0  0  0  0  0  0
    0.9866    0.0000    0.0000 P   0  0  0  0  0  0  0  0  0  0  0  0
    1.9731    0.0000    0.0000 C   0  0  0  0  0  0  0  0  0  0  0  0
    2.4664    0.8544    0.0000 C   0  0  0  0  0  0  0  0  0  0  0  0
    3.4530    0.8544    0.0000 C   0  0  0  0  0  0  0  0  0  0  0  0
    3.9463    0.0000    0.0000 C   0  0  0  0  0  0  0  0  0  0  0  0
    3.4530   -0.8544    0.0000 C   0  0  0  0  0  0  0  0  0  0  0  0
    2.4664   -0.8544    0.0000 C   0  0  0  0  0  0  0  0  0  0  0  0
    0.9866    0.9866    0.0000 C   0  0  0  0  0  0  0  0  0  0  0  0
    0.1322    1.4798    0.0000 C   0  0  0  0  0  0  0  0  0  0  0  0
    0.1322    2.4664    0.0000 C   0  0  0  0  0  0  0  0  0  0  0  0
    0.9866    2.9597    0.0000 C   0  0  0  0  0  0  0  0  0  0  0  0
    1.8410    2.4664    0.0000 C   0  0  0  0  0  0  0  0  0  0  0  0
    1.8410    1.4798    0.0000 C   0  0  0  0  0  0  0  0  0  0  0  0
    0.0000    0.0000    0.0000 N   0  0  0  0  0  0  0  0  0  0  0  0
   -0.6601    0.7332    0.0000 C   0  0  0  0  0  0  0  0  0  0  0  0
   -1.6251    0.5280    0.0000 C   0  0  0  0  0  0  0  0  0  0  0  0
   -2.2853    1.2612    0.0000 C   0  0  0  0  0  0  0  0  0  0  0  0
   -1.9804    2.1995    0.0000 C   0  0  0  0  0  0  0  0  0  0  0  0
   -2.6406    2.9326    0.0000 C   0  0  0  0  0  0  0  0  0  0  0  0
   -3.6056    2.7275    0.0000 O   0  0  0  0  0  0  0  0  0  0  0  0
   -4.4600    3.2208    0.0000 C   0  0  1  0  0  0  0  0  0  0  0  0
   -5.3152    2.7270    0.0000 C   0  0  1  0  0  0  0  0  0  0  0  0
   -4.4488    2.2268    0.0000 C   0  0  0  0  0  0  0  0  0  0  0  0
   -6.1700    3.2205    0.0000 C   0  0  1  0  0  0  0  0  0  0  0  0
   -7.0253    2.7267    0.0000 C   0  0  2  0  0  0  0  0  0  0  0  0
   -7.8805    3.2204    0.0000 C   0  0  0  0  0  0  0  0  0  0  0  0
   -8.7358    2.7266    0.0000 C   0  0  0  0  0  0  0  0  0  0  0  0
   -8.7358    1.7390    0.0000 C   0  0  0  0  0  0  0  0  0  0  0  0
   -9.5908    1.2457    0.0000 C   0  0  0  0  0  0  0  0  0  0  0  0
   -9.5905    0.2586    0.0000 C   0  0  0  0  0  0  0  0  0  0  0  0
  -10.4453   -0.2350    0.0000 O   0  0  0  0  0  0  0  0  0  0  0  0
  -10.5483   -1.2167    0.0000 C   0  0  0  0  0  0  0  0  0  0  0  0
   -8.7353   -0.2351    0.0000 C   0  0  0  0  0  0  0  0  0  0  0  0
   -7.8803    0.2582    0.0000 C   0  0  0  0  0  0  0  0  0  0  0  0
   -7.8806    1.2452    0.0000 C   0  0  0  0  0  0  0  0  0  0  0  0
   -7.0253    1.7391    0.0000 C   0  0  1  0  0  0  0  0  0  0  0  0
   -6.1705    1.2456    0.0000 C   0  0  0  0  0  0  0  0  0  0  0  0
   -5.3153    1.7394    0.0000 C   0  0  0  0  0  0  0  0  0  0  0  0
   -5.3153    4.7009    0.0000 C   0  0  0  0  0  0  0  0  0  0  0  0
   -4.4605    4.2074    0.0000 C   0  0  0  0  0  0  0  0  0  0  0  0
   -2.3357    3.8709    0.0000 O   0  0  0  0  0  0  0  0  0  0  0  0
   -1.0154    2.4046    0.0000 C   0  0  0  0  0  0  0  0  0  0  0  0
   -0.3553    1.6714    0.0000 C   0  0  0  0  0  0  0  0  0  0  0  0
    1.8410   -1.4798    0.0000 C   0  0  0  0  0  0  0  0  0  0  0  0
    1.8410   -2.4664    0.0000 C   0  0  0  0  0  0  0  0  0  0  0  0
  1 49  2  0  0  0  0
  1  2  1  0  0  0  0
  2  3  2  0  0  0  0
  3  4  1  0  0  0  0
  4  5  1  0  0  0  0
  4 48  2  0  0  0  0
  5  6  1  0  0  0  0
  5 12  1  0  0  0  0
  5 18  2  0  0  0  0
  6 11  2  0  0  0  0
  6  7  1  0  0  0  0
  7  8  2  0  0  0  0
  8  9  1  0  0  0  0
  9 10  2  0  0  0  0
 10 11  1  0  0  0  0
 12 17  2  0  0  0  0
 12 13  1  0  0  0  0
 13 14  2  0  0  0  0
 14 15  1  0  0  0  0
 15 16  2  0  0  0  0
 16 17  1  0  0  0  0
 18 19  1  0  0  0  0
 19 47  2  0  0  0  0
 19 20  1  0  0  0  0
 20 21  2  0  0  0  0
 21 22  1  0  0  0  0
 22 23  1  0  0  0  0
 22 46  2  0  0  0  0
 23 24  1  0  0  0  0
 23 45  2  0  0  0  0
 25 24  1  1  0  0  0
 25 26  1  0  0  0  0
 25 44  1  0  0  0  0
 26 42  1  0  0  0  0
 26 27  1  1  0  0  0
 26 28  1  0  0  0  0
 28 29  1  0  0  0  0
 28 43  1  1  0  0  0
 29 30  1  1  0  0  0
 29 40  1  0  0  0  0
 30 31  1  0  0  0  0
 31 32  1  0  0  0  0
 32 39  2  0  0  0  0
 32 33  1  0  0  0  0
 33 34  2  0  0  0  0
 34 35  1  0  0  0  0
 34 37  1  0  0  0  0
 35 36  1  0  0  0  0
 37 38  2  0  0  0  0
 38 39  1  0  0  0  0
 39 40  1  0  0  0  0
 40 41  1  6  0  0  0
 41 42  1  0  0  0  0
 43 44  1  0  0  0  0
 46 47  1  0  0  0  0
 48 49  1  0  0  0  0
M  END
> <NMREDATA_VERSION>
1.1

> <NMREDATA_LEVEL>
0

> <NMREDATA_SOLVENT>
CDCl3

> <NMREDATA_FORMULA>
C44H44NO3P

> <NMREDATA_SMILES>
COc1ccc2c(c1)CC[C@@H]1[C@@H]2CC[C@@]2([C@@H]1CC[C@H]2OC(=O)c1ccc(cc1)N=P(c1ccccc1)(c1ccccc1)c1ccccc1)C

> <NMREDATA_ASSIGNMENT>
P5, 5.50, 5

> <NMREDATA_1D_31P>
Larmor=121
5.50, L=P5

$$$$
