
 OpenBabel06112616442D

 45 51  0  0  0  0  0  0  0  0999 V2000
    5.6515   -0.1302    0.0000 C   0  0  0  0  0  0  0  0  0  0  0  0
    6.5908   -0.0315    0.0000 F   0  0  0  0  0  0  0  0  0  0  0  0
    6.0357    0.7326    0.0000 F   0  0  0  0  0  0  0  0  0  0  0  0
    5.7502   -1.0695    0.0000 F   0  0  0  0  0  0  0  0  0  0  0  0
    4.7887    0.2539    0.0000 C   0  0  0  0  0  0  0  0  0  0  0  0
    4.0247   -0.3012    0.0000 C   0  0  0  0  0  0  0  0  0  0  0  0
    3.1619    0.0829    0.0000 C   0  0  0  0  0  0  0  0  0  0  0  0
    2.3978   -0.4722    0.0000 C   0  0  0  0  0  0  0  0  0  0  0  0
    1.4996   -0.1804    0.0000 C   0  0  0  0  0  0  0  0  0  0  0  0
    0.3322    3.4125    0.0000 C   0  0  0  0  0  0  0  0  0  0  0  0
   -0.5916    3.6089    0.0000 C   0  0  0  0  0  0  0  0  0  0  0  0
   -0.8835    4.5071    0.0000 C   0  0  0  0  0  0  0  0  0  0  0  0
   -1.8073    4.7034    0.0000 C   0  0  0  0  0  0  0  0  0  0  0  0
   -2.4392    4.0016    0.0000 C   0  0  0  0  0  0  0  0  0  0  0  0
   -2.1474    3.1034    0.0000 C   0  0  0  0  0  0  0  0  0  0  0  0
   -1.2236    2.9070    0.0000 C   0  0  0  0  0  0  0  0  0  0  0  0
   -0.2515    5.2089    0.0000 C   0  0  0  0  0  0  0  0  0  0  0  0
    0.6723    5.0126    0.0000 C   0  0  0  0  0  0  0  0  0  0  0  0
    0.9641    4.1144    0.0000 C   0  0  0  0  0  0  0  0  0  0  0  0
    1.8879    3.9180    0.0000 C   0  0  0  0  0  0  0  0  0  0  0  0
    2.5199    4.6199    0.0000 C   0  0  0  0  0  0  0  0  0  0  0  0
    3.4437    4.4235    0.0000 C   0  0  0  0  0  0  0  0  0  0  0  0
    3.7356    3.5253    0.0000 C   0  0  0  0  0  0  0  0  0  0  0  0
    3.1036    2.8234    0.0000 C   0  0  0  0  0  0  0  0  0  0  0  0
    2.1798    3.0198    0.0000 C   0  0  0  0  0  0  0  0  0  0  0  0
    0.9444   -0.9444    0.0000 C   0  0  0  0  0  0  0  0  0  0  0  0
    0.0000   -0.9444    0.0000 P   0  0  0  0  0  0  0  0  0  0  0  0
    0.0000   -1.8889    0.0000 C   0  0  0  0  0  0  0  0  0  0  0  0
   -0.8179   -2.3611    0.0000 C   0  0  0  0  0  0  0  0  0  0  0  0
   -0.8179   -3.3056    0.0000 C   0  0  0  0  0  0  0  0  0  0  0  0
    0.0000   -3.7778    0.0000 C   0  0  0  0  0  0  0  0  0  0  0  0
    0.8179   -3.3056    0.0000 C   0  0  0  0  0  0  0  0  0  0  0  0
    0.8179   -2.3611    0.0000 C   0  0  0  0  0  0  0  0  0  0  0  0
   -0.9444   -0.9444    0.0000 C   0  0  0  0  0  0  0  0  0  0  0  0
   -1.4167   -0.1265    0.0000 C   0  0  0  0  0  0  0  0  0  0  0  0
   -2.3611   -0.1265    0.0000 C   0  0  0  0  0  0  0  0  0  0  0  0
   -2.8333   -0.9444    0.0000 C   0  0  0  0  0  0  0  0  0  0  0  0
   -2.3611   -1.7624    0.0000 C   0  0  0  0  0  0  0  0  0  0  0  0
   -1.4167   -1.7624    0.0000 C   0  0  0  0  0  0  0  0  0  0  0  0
    0.0000    0.0000    0.0000 O   0  0  0  0  0  0  0  0  0  0  0  0
    1.4996   -1.7085    0.0000 N   0  0  0  0  0  0  0  0  0  0  0  0
    2.3978   -1.4167    0.0000 N   0  0  0  0  0  0  0  0  0  0  0  0
    3.0631    1.0222    0.0000 C   0  0  0  0  0  0  0  0  0  0  0  0
    3.8272    1.5773    0.0000 C   0  0  0  0  0  0  0  0  0  0  0  0
    4.6900    1.1932    0.0000 C   0  0  0  0  0  0  0  0  0  0  0  0
  1  2  1  0  0  0  0
  1  3  1  0  0  0  0
  1  4  1  0  0  0  0
  1  5  1  0  0  0  0
  5 45  2  0  0  0  0
  5  6  1  0  0  0  0
  6  7  2  0  0  0  0
  7  8  1  0  0  0  0
  7 43  1  0  0  0  0
  8 42  1  0  0  0  0
  8  9  2  0  0  0  0
  9 10  1  0  0  0  0
  9 26  1  0  0  0  0
 10 19  2  0  0  0  0
 10 11  1  0  0  0  0
 11 16  2  0  0  0  0
 11 12  1  0  0  0  0
 12 13  2  0  0  0  0
 12 17  1  0  0  0  0
 13 14  1  0  0  0  0
 14 15  2  0  0  0  0
 15 16  1  0  0  0  0
 17 18  2  0  0  0  0
 18 19  1  0  0  0  0
 19 20  1  0  0  0  0
 20 25  2  0  0  0  0
 20 21  1  0  0  0  0
 21 22  2  0  0  0  0
 22 23  1  0  0  0  0
 23 24  2  0  0  0  0
 24 25  1  0  0  0  0
 26 27  1  0  0  0  0
 26 41  2  0  0  0  0
 27 28  1  0  0  0  0
 27 34  1  0  0  0  0
 27 40  2  0  0  0  0
 28 33  2  0  0  0  0
 28 29  1  0  0  0  0
 29 30  2  0  0  0  0
 30 31  1  0  0  0  0
 31 32  2  0  0  0  0
 32 33  1  0  0  0  0
 34 39  2  0  0  0  0
 34 35  1  0  0  0  0
 35 36  2  0  0  0  0
 36 37  1  0  0  0  0
 37 38  2  0  0  0  0
 38 39  1  0  0  0  0
 41 42  1  0  0  0  0
 43 44  2  0  0  0  0
 44 45  1  0  0  0  0
M  END
> <NMREDATA_VERSION>
1.1

> <NMREDATA_LEVEL>
0

> <NMREDATA_SOLVENT>
mixed

> <NMREDATA_FORMULA>
C38H26F3N2OP

> <NMREDATA_SMILES>
FC(c1cccc(c1)c1[nH]nc(c1c1c(ccc2c1cccc2)c1ccccc1)P(=O)(c1ccccc1)c1ccccc1)(F)F

> <NMREDATA_ASSIGNMENT>
P27, 22.80, 27

> <NMREDATA_1D_31P>
Larmor=162
22.80, L=P27

$$$$
