
 OpenBabel06112616442D

 40 45  0  0  1  0  0  0  0  0999 V2000
    1.4674   -1.8255    0.0000 C    0  0  0  0  0  0  0  0  0  0  0  0
    0.9783   -0.9783    0.0000 C    0  0  3  0  0  0  0  0  0  0  0  0
    1.4674   -0.1311    0.0000 C    0  0  3  0  0  0  0  0  0  0  0  0
    1.7206    0.8139    0.0000 C    0  0  0  0  0  0  0  0  0  0  0  0
    1.0288    1.5056    0.0000 O    0  0  0  0  0  0  0  0  0  0  0  0
    2.6655    1.0671    0.0000 C    0  0  0  0  0  0  0  0  0  0  0  0
    3.3572    0.3753    0.0000 C    0  0  0  0  0  0  0  0  0  0  0  0
    4.3022    0.6285    0.0000 C    0  0  0  0  0  0  0  0  0  0  0  0
    4.5554    1.5734    0.0000 C    0  0  0  0  0  0  0  0  0  0  0  0
    3.8636    2.2652    0.0000 C    0  0  0  0  0  0  0  0  0  0  0  0
    2.9187    2.0120    0.0000 C    0  0  0  0  0  0  0  0  0  0  0  0
    3.1041   -0.5696    0.0000 C    0  0  0  0  0  0  0  0  0  0  0  0
    3.7958   -1.2613    0.0000 C    0  0  0  0  0  0  0  0  0  0  0  0
    4.7407   -1.0081    0.0000 C    0  0  0  0  0  0  0  0  0  0  0  0
    5.4325   -1.6999    0.0000 C    0  0  0  0  0  0  0  0  0  0  0  0
    5.1793   -2.6448    0.0000 C    0  0  0  0  0  0  0  0  0  0  0  0
    4.2343   -2.8980    0.0000 C    0  0  0  0  0  0  0  0  0  0  0  0
    3.5426   -2.2063    0.0000 C    0  0  0  0  0  0  0  0  0  0  0  0
    2.1591   -0.8228    0.0000 C    0  0  0  0  0  0  0  0  0  0  0  0
    1.9059   -1.7677    0.0000 Br   0  0  0  0  0  0  0  0  0  0  0  0
    0.2763    1.4212    0.0000 C    0  0  0  0  0  0  0  0  0  0  0  0
   -0.6936    1.2935    0.0000 C    0  0  0  0  0  0  0  0  0  0  0  0
   -1.2891    2.0696    0.0000 C    0  0  0  0  0  0  0  0  0  0  0  0
   -0.9147    2.9734    0.0000 C    0  0  0  0  0  0  0  0  0  0  0  0
    0.0552    3.1011    0.0000 C    0  0  0  0  0  0  0  0  0  0  0  0
    0.6507    2.3249    0.0000 C    0  0  0  0  0  0  0  0  0  0  0  0
    0.0000   -0.9783    0.0000 P    0  0  0  0  0  0  0  0  0  0  0  0
    0.0000   -1.9565    0.0000 C    0  0  0  0  0  0  0  0  0  0  0  0
   -0.8472   -2.4457    0.0000 C    0  0  0  0  0  0  0  0  0  0  0  0
   -0.8472   -3.4239    0.0000 C    0  0  0  0  0  0  0  0  0  0  0  0
    0.0000   -3.9130    0.0000 C    0  0  0  0  0  0  0  0  0  0  0  0
    0.8472   -3.4239    0.0000 C    0  0  0  0  0  0  0  0  0  0  0  0
    0.8472   -2.4457    0.0000 C    0  0  0  0  0  0  0  0  0  0  0  0
   -0.9783   -0.9783    0.0000 C    0  0  0  0  0  0  0  0  0  0  0  0
   -1.4674   -0.1311    0.0000 C    0  0  0  0  0  0  0  0  0  0  0  0
   -2.4457   -0.1311    0.0000 C    0  0  0  0  0  0  0  0  0  0  0  0
   -2.9348   -0.9783    0.0000 C    0  0  0  0  0  0  0  0  0  0  0  0
   -2.4457   -1.8255    0.0000 C    0  0  0  0  0  0  0  0  0  0  0  0
   -1.4674   -1.8255    0.0000 C    0  0  0  0  0  0  0  0  0  0  0  0
    0.0000    0.0000    0.0000 O    0  0  0  0  0  0  0  0  0  0  0  0
  1  2  1  0  0  0  0
  2  3  1  0  0  0  0
  2 27  1  0  0  0  0
  3 19  1  0  0  0  0
  3  4  1  0  0  0  0
  3 21  1  0  0  0  0
  4  5  2  0  0  0  0
  4  6  1  0  0  0  0
  6 11  2  0  0  0  0
  6  7  1  0  0  0  0
  7  8  2  0  0  0  0
  7 12  1  0  0  0  0
  8  9  1  0  0  0  0
  9 10  2  0  0  0  0
 10 11  1  0  0  0  0
 12 13  1  0  0  0  0
 12 19  2  0  0  0  0
 13 18  2  0  0  0  0
 13 14  1  0  0  0  0
 14 15  2  0  0  0  0
 15 16  1  0  0  0  0
 16 17  2  0  0  0  0
 17 18  1  0  0  0  0
 19 20  1  0  0  0  0
 21 26  2  0  0  0  0
 21 22  1  0  0  0  0
 22 23  2  0  0  0  0
 23 24  1  0  0  0  0
 24 25  2  0  0  0  0
 25 26  1  0  0  0  0
 27 28  1  0  0  0  0
 27 34  1  0  0  0  0
 27 40  2  0  0  0  0
 28 33  2  0  0  0  0
 28 29  1  0  0  0  0
 29 30  2  0  0  0  0
 30 31  1  0  0  0  0
 31 32  2  0  0  0  0
 32 33  1  0  0  0  0
 34 39  2  0  0  0  0
 34 35  1  0  0  0  0
 35 36  2  0  0  0  0
 36 37  1  0  0  0  0
 37 38  2  0  0  0  0
 38 39  1  0  0  0  0
M  END
> <NMREDATA_VERSION>
1.1

> <NMREDATA_LEVEL>
0

> <NMREDATA_SOLVENT>
CDCl3

> <NMREDATA_FORMULA>
C36H28BrO2P

> <NMREDATA_SMILES>
O=C1c2ccccc2C(=C(C1(c1ccccc1)C(P(=O)(c1ccccc1)c1ccccc1)C)Br)c1ccccc1

> <NMREDATA_ASSIGNMENT>
P27, 31.20, 27

> <NMREDATA_1D_31P>
Larmor=162
31.20, L=P27

$$$$
