
 OpenBabel06112616432D

 36 41  0  0  1  0  0  0  0  0999 V2000
   -4.2656   -0.1270    0.0000 O   0  0  0  0  0  0  0  0  0  0  0  0
   -3.7916    0.6939    0.0000 C   0  0  3  0  0  0  0  0  0  0  0  0
   -2.8437    0.6939    0.0000 C   0  0  0  0  0  0  0  0  0  0  0  0
   -2.3698   -0.1270    0.0000 C   0  0  0  0  0  0  0  0  0  0  0  0
   -1.4219   -0.1270    0.0000 C   0  0  0  0  0  0  0  0  0  0  0  0
   -0.9479   -0.9479    0.0000 C   0  0  0  0  0  0  0  0  0  0  0  0
    0.0000   -0.9479    0.0000 P   0  0  0  0  0  0  0  0  0  0  0  0
    0.0000   -1.8958    0.0000 S   0  0  0  0  0  0  0  0  0  0  0  0
    0.9479   -0.9479    0.0000 C   0  0  0  0  0  0  0  0  0  0  0  0
    1.4219   -0.1270    0.0000 C   0  0  0  0  0  0  0  0  0  0  0  0
    2.3698   -0.1270    0.0000 C   0  0  0  0  0  0  0  0  0  0  0  0
    2.8437   -0.9479    0.0000 C   0  0  0  0  0  0  0  0  0  0  0  0
    2.3698   -1.7688    0.0000 C   0  0  0  0  0  0  0  0  0  0  0  0
    1.4219   -1.7688    0.0000 C   0  0  0  0  0  0  0  0  0  0  0  0
    0.0000    0.0000    0.0000 C   0  0  0  0  0  0  0  0  0  0  0  0
   -0.8209    0.4740    0.0000 C   0  0  0  0  0  0  0  0  0  0  0  0
   -0.8209    1.4219    0.0000 C   0  0  0  0  0  0  0  0  0  0  0  0
    0.0000    1.8958    0.0000 C   0  0  0  0  0  0  0  0  0  0  0  0
    0.8209    1.4219    0.0000 C   0  0  0  0  0  0  0  0  0  0  0  0
    0.8209    0.4740    0.0000 C   0  0  0  0  0  0  0  0  0  0  0  0
   -4.2656    1.5148    0.0000 C   0  0  0  0  0  0  0  0  0  0  0  0
   -5.2149    1.5145    0.0000 C   0  0  0  0  0  0  0  0  0  0  0  0
   -5.7006    2.3350    0.0000 C   0  0  0  0  0  0  0  0  0  0  0  0
   -6.6552    2.3347    0.0000 C   0  0  0  0  0  0  0  0  0  0  0  0
   -7.1246    3.1552    0.0000 C   0  0  0  0  0  0  0  0  0  0  0  0
   -6.6557    3.9931    0.0000 C   0  0  0  0  0  0  0  0  0  0  0  0
   -5.7011    3.9934    0.0000 C   0  0  0  0  0  0  0  0  0  0  0  0
   -5.2159    4.8142    0.0000 C   0  0  0  0  0  0  0  0  0  0  0  0
   -4.2665    4.8145    0.0000 C   0  0  0  0  0  0  0  0  0  0  0  0
   -3.7919    3.9940    0.0000 C   0  0  0  0  0  0  0  0  0  0  0  0
   -2.8372    3.9943    0.0000 C   0  0  0  0  0  0  0  0  0  0  0  0
   -2.3568    3.1681    0.0000 C   0  0  0  0  0  0  0  0  0  0  0  0
   -2.8367    2.3359    0.0000 C   0  0  0  0  0  0  0  0  0  0  0  0
   -3.7914    2.3356    0.0000 C   0  0  0  0  0  0  0  0  0  0  0  0
   -4.2661    3.1675    0.0000 C   0  0  0  0  0  0  0  0  0  0  0  0
   -5.2154    3.1672    0.0000 C   0  0  0  0  0  0  0  0  0  0  0  0
  1  2  1  0  0  0  0
  2  3  1  0  0  0  0
  2 21  1  0  0  0  0
  3  4  1  0  0  0  0
  4  5  1  0  0  0  0
  5  6  1  0  0  0  0
  6  7  1  0  0  0  0
  7  8  2  0  0  0  0
  7  9  1  0  0  0  0
  7 15  1  0  0  0  0
  9 14  2  0  0  0  0
  9 10  1  0  0  0  0
 10 11  2  0  0  0  0
 11 12  1  0  0  0  0
 12 13  2  0  0  0  0
 13 14  1  0  0  0  0
 15 20  2  0  0  0  0
 15 16  1  0  0  0  0
 16 17  2  0  0  0  0
 17 18  1  0  0  0  0
 18 19  2  0  0  0  0
 19 20  1  0  0  0  0
 21 34  2  0  0  0  0
 21 22  1  0  0  0  0
 22 23  2  0  0  0  0
 23 36  1  0  0  0  0
 23 24  1  0  0  0  0
 24 25  2  0  0  0  0
 25 26  1  0  0  0  0
 26 27  2  0  0  0  0
 27 36  1  0  0  0  0
 27 28  1  0  0  0  0
 28 29  2  0  0  0  0
 29 30  1  0  0  0  0
 30 35  1  0  0  0  0
 30 31  2  0  0  0  0
 31 32  1  0  0  0  0
 32 33  2  0  0  0  0
 33 34  1  0  0  0  0
 34 35  1  0  0  0  0
 35 36  2  0  0  0  0
M  END
> <NMREDATA_VERSION>
1.1

> <NMREDATA_LEVEL>
0

> <NMREDATA_SOLVENT>
CDCl3

> <NMREDATA_FORMULA>
C33H29OPS

> <NMREDATA_SMILES>
OC(c1cc2cccc3c2c2c1cccc2cc3)CCCCP(=S)(c1ccccc1)c1ccccc1

> <NMREDATA_ASSIGNMENT>
P7, 42.60, 7

> <NMREDATA_1D_31P>
Larmor=243
42.60, L=P7

$$$$
