
 OpenBabel06112616422D

 51 60  0  0  1  0  0  0  0  0999 V2000
    1.6763    0.2655    0.0000 C    0  0  0  0  0  0  0  0  0  0  0  0
    0.9058   -0.2943    0.0000 C    0  0  1  0  0  0  0  0  0  0  0  0
    0.9058   -1.2467    0.0000 C    0  0  0  0  0  0  0  0  0  0  0  0
    0.0000   -1.5410    0.0000 Si   0  0  3  0  0  0  0  0  0  0  0  0
    0.5598   -2.3115    0.0000 C    0  0  0  0  0  0  0  0  0  0  0  0
    0.0000   -3.0820    0.0000 C    0  0  1  0  0  0  0  0  0  0  0  0
    0.2943   -3.9877    0.0000 C    0  0  0  0  0  0  0  0  0  0  0  0
   -0.9058   -2.7877    0.0000 C    0  0  0  0  0  0  0  0  0  0  0  0
   -1.7306   -3.2639    0.0000 C    0  0  0  0  0  0  0  0  0  0  0  0
   -2.5553   -2.7877    0.0000 C    0  0  0  0  0  0  0  0  0  0  0  0
   -2.5553   -1.8353    0.0000 C    0  0  0  0  0  0  0  0  0  0  0  0
   -1.7306   -1.3591    0.0000 C    0  0  0  0  0  0  0  0  0  0  0  0
   -1.7306   -0.4067    0.0000 O    0  0  0  0  0  0  0  0  0  0  0  0
    1.5686    1.4980    0.0000 P    0  0  0  0  0  0  0  0  0  0  0  0
    1.4974    2.4478    0.0000 O    0  0  0  0  0  0  0  0  0  0  0  0
    2.1956    3.0955    0.0000 C    0  0  0  0  0  0  0  0  0  0  0  0
    1.8476    3.9821    0.0000 C    0  0  0  0  0  0  0  0  0  0  0  0
    2.4414    4.7267    0.0000 C    0  0  0  0  0  0  0  0  0  0  0  0
    3.3832    4.5848    0.0000 C    0  0  0  0  0  0  0  0  0  0  0  0
    3.7311    3.6982    0.0000 C    0  0  0  0  0  0  0  0  0  0  0  0
    3.1373    2.9536    0.0000 C    0  0  0  0  0  0  0  0  0  0  0  0
    3.6135    2.1288    0.0000 C    0  0  0  0  0  0  0  0  0  0  0  0
    4.5552    2.2708    0.0000 C    0  0  0  0  0  0  0  0  0  0  0  0
    5.1490    1.5262    0.0000 C    0  0  0  0  0  0  0  0  0  0  0  0
    4.8011    0.6396    0.0000 C    0  0  0  0  0  0  0  0  0  0  0  0
    3.8594    0.4977    0.0000 C    0  0  0  0  0  0  0  0  0  0  0  0
    3.2656    1.2423    0.0000 C    0  0  0  0  0  0  0  0  0  0  0  0
    2.3555    0.9616    0.0000 O    0  0  0  0  0  0  0  0  0  0  0  0
   -0.9058   -1.8353    0.0000 C    0  0  0  0  0  0  0  0  0  0  0  0
   -0.5598   -0.7705    0.0000 C    0  0  0  0  0  0  0  0  0  0  0  0
   -1.5070   -0.6709    0.0000 C    0  0  0  0  0  0  0  0  0  0  0  0
   -2.0668   -1.4414    0.0000 O    0  0  0  0  0  0  0  0  0  0  0  0
   -3.0139   -1.3419    0.0000 P    0  0  0  0  0  0  0  0  0  0  0  0
   -3.3352   -0.4453    0.0000 O    0  0  0  0  0  0  0  0  0  0  0  0
   -4.2364   -0.1375    0.0000 C    0  0  0  0  0  0  0  0  0  0  0  0
   -4.2792    0.8139    0.0000 C    0  0  0  0  0  0  0  0  0  0  0  0
   -5.1245    1.2526    0.0000 C    0  0  0  0  0  0  0  0  0  0  0  0
   -5.9271    0.7399    0.0000 C    0  0  0  0  0  0  0  0  0  0  0  0
   -5.8844   -0.2115    0.0000 C    0  0  0  0  0  0  0  0  0  0  0  0
   -5.0390   -0.6502    0.0000 C    0  0  0  0  0  0  0  0  0  0  0  0
   -5.1386   -1.5974    0.0000 C    0  0  0  0  0  0  0  0  0  0  0  0
   -6.0567   -1.8508    0.0000 C    0  0  0  0  0  0  0  0  0  0  0  0
   -6.2963   -2.7725    0.0000 C    0  0  0  0  0  0  0  0  0  0  0  0
   -5.6178   -3.4409    0.0000 C    0  0  0  0  0  0  0  0  0  0  0  0
   -4.6997   -3.1875    0.0000 C    0  0  0  0  0  0  0  0  0  0  0  0
   -4.4601   -2.2658    0.0000 C    0  0  0  0  0  0  0  0  0  0  0  0
   -3.5146   -2.1521    0.0000 O    0  0  0  0  0  0  0  0  0  0  0  0
   -1.8943    0.1991    0.0000 C    0  0  0  0  0  0  0  0  0  0  0  0
   -1.3345    0.9696    0.0000 C    0  0  0  0  0  0  0  0  0  0  0  0
   -0.3874    0.8700    0.0000 C    0  0  0  0  0  0  0  0  0  0  0  0
    0.0000    0.0000    0.0000 C    0  0  0  0  0  0  0  0  0  0  0  0
  2  1  1  1  0  0  0
  2  3  1  0  0  0  0
  2 51  1  0  0  0  0
  3  4  1  0  0  0  0
  4 29  1  0  0  0  0
  4  5  1  0  0  0  0
  4 30  1  0  0  0  0
  5  6  1  0  0  0  0
  6  7  1  1  0  0  0
  6  8  1  0  0  0  0
  8 29  2  0  0  0  0
  8  9  1  0  0  0  0
  9 10  2  0  0  0  0
 10 11  1  0  0  0  0
 11 12  2  0  0  0  0
 12 13  1  0  0  0  0
 12 29  1  0  0  0  0
 13 14  1  0  0  0  0
 14 28  1  0  0  0  0
 14 15  1  0  0  0  0
 15 16  1  0  0  0  0
 16 21  2  0  0  0  0
 16 17  1  0  0  0  0
 17 18  2  0  0  0  0
 18 19  1  0  0  0  0
 19 20  2  0  0  0  0
 20 21  1  0  0  0  0
 21 22  1  0  0  0  0
 22 27  2  0  0  0  0
 22 23  1  0  0  0  0
 23 24  2  0  0  0  0
 24 25  1  0  0  0  0
 25 26  2  0  0  0  0
 26 27  1  0  0  0  0
 27 28  1  0  0  0  0
 30 51  2  0  0  0  0
 30 31  1  0  0  0  0
 31 32  1  0  0  0  0
 31 48  2  0  0  0  0
 32 33  1  0  0  0  0
 33 47  1  0  0  0  0
 33 34  1  0  0  0  0
 34 35  1  0  0  0  0
 35 40  2  0  0  0  0
 35 36  1  0  0  0  0
 36 37  2  0  0  0  0
 37 38  1  0  0  0  0
 38 39  2  0  0  0  0
 39 40  1  0  0  0  0
 40 41  1  0  0  0  0
 41 46  2  0  0  0  0
 41 42  1  0  0  0  0
 42 43  2  0  0  0  0
 43 44  1  0  0  0  0
 44 45  2  0  0  0  0
 45 46  1  0  0  0  0
 46 47  1  0  0  0  0
 48 49  1  0  0  0  0
 49 50  2  0  0  0  0
 50 51  1  0  0  0  0
M  END
> <NMREDATA_VERSION>
1.1

> <NMREDATA_LEVEL>
0

> <NMREDATA_SOLVENT>
CDCl3

> <NMREDATA_FORMULA>
C42H34O6P2Si

> <NMREDATA_SMILES>
C[C@@H]1C[Si]2(c3c1cccc3Op1oc3ccccc3c3c(o1)cccc3)C[C@@H](c1c2c(ccc1)Op1oc2ccccc2c2c(o1)cccc2)C

> <NMREDATA_ASSIGNMENT>
P14, 143.15, 14
P33, 143.15, 33

> <NMREDATA_1D_31P>
Larmor=162
143.15, L=P14
143.15, L=P33

$$$$
