
 OpenBabel06112616462D

 30 32  0  0  1  0  0  0  0  0999 V2000
    -0.500     0.134     0.000 F    0  0  0  0  0  0  0  0  0  0  0  0
     0.000     1.000     0.000 C    0  0  0  0  0  0  0  0  0  0  0  0
     0.000     2.000     0.000 F    0  0  0  0  0  0  0  0  0  0  0  0
    -0.866     1.500     0.000 F    0  0  0  0  0  0  0  0  0  0  0  0
     1.000     1.000     0.000 C    0  0  2  0  0  0  0  0  0  0  0  0
     1.000     2.000     0.000 C    0  0  0  0  0  0  0  0  0  0  0  0
     1.000     3.000     0.000 C    0  0  0  0  0  0  0  0  0  0  0  0
     2.000     1.000     0.000 C    0  0  0  0  0  0  0  0  0  0  0  0
     2.500     0.134     0.000 C    0  0  0  0  0  0  0  0  0  0  0  0
     3.500     0.134     0.000 C    0  0  0  0  0  0  0  0  0  0  0  0
     4.000     1.000     0.000 C    0  0  0  0  0  0  0  0  0  0  0  0
     5.000     1.000     0.000 Cl   0  0  0  0  0  0  0  0  0  0  0  0
     3.500     1.866     0.000 C    0  0  0  0  0  0  0  0  0  0  0  0
     2.500     1.866     0.000 C    0  0  0  0  0  0  0  0  0  0  0  0
     1.000     0.000     0.000 P    0  0  0  0  0  0  0  0  0  0  0  0
     2.000     0.000     0.000 O    0  0  0  0  0  0  0  0  0  0  0  0
     1.000    -1.000     0.000 C    0  0  0  0  0  0  0  0  0  0  0  0
     0.134    -1.500     0.000 C    0  0  0  0  0  0  0  0  0  0  0  0
     0.134    -2.500     0.000 C    0  0  0  0  0  0  0  0  0  0  0  0
     1.000    -3.000     0.000 C    0  0  0  0  0  0  0  0  0  0  0  0
     1.000    -4.000     0.000 C    0  0  0  0  0  0  0  0  0  0  0  0
     1.866    -2.500     0.000 C    0  0  0  0  0  0  0  0  0  0  0  0
     1.866    -1.500     0.000 C    0  0  0  0  0  0  0  0  0  0  0  0
     0.000     0.000     0.000 C    0  0  0  0  0  0  0  0  0  0  0  0
    -0.500     0.866     0.000 C    0  0  0  0  0  0  0  0  0  0  0  0
    -1.500     0.866     0.000 C    0  0  0  0  0  0  0  0  0  0  0  0
    -2.000     0.000     0.000 C    0  0  0  0  0  0  0  0  0  0  0  0
    -3.000     0.000     0.000 C    0  0  0  0  0  0  0  0  0  0  0  0
    -1.500    -0.866     0.000 C    0  0  0  0  0  0  0  0  0  0  0  0
    -0.500    -0.866     0.000 C    0  0  0  0  0  0  0  0  0  0  0  0
  1  2  1  0  0  0  0
  2  3  1  0  0  0  0
  2  4  1  0  0  0  0
  2  5  1  0  0  0  0
  5  6  1  1  0  0  0
  5  8  1  0  0  0  0
  5 15  1  0  0  0  0
  6  7  3  0  0  0  0
  8 14  2  0  0  0  0
  8  9  1  0  0  0  0
  9 10  2  0  0  0  0
 10 11  1  0  0  0  0
 11 12  1  0  0  0  0
 11 13  2  0  0  0  0
 13 14  1  0  0  0  0
 15 16  2  0  0  0  0
 15 17  1  0  0  0  0
 15 24  1  0  0  0  0
 17 23  2  0  0  0  0
 17 18  1  0  0  0  0
 18 19  2  0  0  0  0
 19 20  1  0  0  0  0
 20 21  1  0  0  0  0
 20 22  2  0  0  0  0
 22 23  1  0  0  0  0
 24 30  2  0  0  0  0
 24 25  1  0  0  0  0
 25 26  2  0  0  0  0
 26 27  1  0  0  0  0
 27 28  1  0  0  0  0
 27 29  2  0  0  0  0
 29 30  1  0  0  0  0
M  END
> <NMREDATA_VERSION>
1.1

> <NMREDATA_LEVEL>
0

> <NMREDATA_SOLVENT>
CDCl3

> <NMREDATA_FORMULA>
C24H19ClF3OP

> <NMREDATA_SMILES>
C#C[C@@](P(=O)(c1ccc(cc1)C)c1ccc(cc1)C)(C(F)(F)F)c1ccc(cc1)Cl

> <NMREDATA_ASSIGNMENT>
P15, 29.40, 15

> <NMREDATA_1D_31P>
Larmor=not_known
29.40, L=P15

$$$$
