
 OpenBabel06112616432D

 36 38  0  0  1  0  0  0  0  0999 V2000
    0.1340   -4.5000    0.0000 C   0  0  0  0  0  0  0  0  0  0  0  0
    1.0000   -4.0000    0.0000 C   0  0  0  0  0  0  0  0  0  0  0  0
    1.8660   -4.5000    0.0000 C   0  0  0  0  0  0  0  0  0  0  0  0
    1.0000   -3.0000    0.0000 O   0  0  0  0  0  0  0  0  0  0  0  0
    1.8660   -2.5000    0.0000 C   0  0  0  0  0  0  0  0  0  0  0  0
    2.7321   -3.0000    0.0000 O   0  0  0  0  0  0  0  0  0  0  0  0
    1.8660   -1.5000    0.0000 C   0  0  1  0  0  0  0  0  0  0  0  0
    2.7321   -1.0000    0.0000 C   0  0  0  0  0  0  0  0  0  0  0  0
    1.0000   -1.0000    0.0000 N   0  0  0  0  0  0  0  0  0  0  0  0
    1.0000    0.0000    0.0000 P   0  0  1  0  0  0  0  0  0  0  0  0
    2.0000    0.0000    0.0000 O   0  0  0  0  0  0  0  0  0  0  0  0
    2.5000    0.8660    0.0000 C   0  0  0  0  0  0  0  0  0  0  0  0
    2.0000    1.7321    0.0000 C   0  0  0  0  0  0  0  0  0  0  0  0
    2.5000    2.5981    0.0000 C   0  0  0  0  0  0  0  0  0  0  0  0
    3.5000    2.5981    0.0000 C   0  0  0  0  0  0  0  0  0  0  0  0
    4.0000    1.7321    0.0000 C   0  0  0  0  0  0  0  0  0  0  0  0
    3.5000    0.8660    0.0000 C   0  0  0  0  0  0  0  0  0  0  0  0
    1.0000    1.0000    0.0000 O   0  0  0  0  0  0  0  0  0  0  0  0
    0.0000    0.0000    0.0000 O   0  0  0  0  0  0  0  0  0  0  0  0
   -0.5000    0.8660    0.0000 C   0  0  2  0  0  0  0  0  0  0  0  0
   -0.0933    1.7796    0.0000 C   0  0  1  0  0  0  0  0  0  0  0  0
    0.8849    1.9875    0.0000 C   0  0  0  0  0  0  0  0  0  0  0  0
    1.5540    1.2443    0.0000 O   0  0  0  0  0  0  0  0  0  0  0  0
   -0.8364    2.4487    0.0000 O   0  0  0  0  0  0  0  0  0  0  0  0
   -1.7024    1.9487    0.0000 C   0  0  1  0  0  0  0  0  0  0  0  0
   -2.6160    2.3554    0.0000 N   0  0  0  0  0  0  0  0  0  0  0  0
   -2.7205    3.3500    0.0000 C   0  0  0  0  0  0  0  0  0  0  0  0
   -3.6341    3.7567    0.0000 C   0  0  0  0  0  0  0  0  0  0  0  0
   -4.4431    3.1689    0.0000 C   0  0  0  0  0  0  0  0  0  0  0  0
   -5.3566    3.5756    0.0000 N   0  0  0  0  0  0  0  0  0  0  0  0
   -4.3385    2.1744    0.0000 N   0  0  0  0  0  0  0  0  0  0  0  0
   -3.4250    1.7677    0.0000 C   0  0  0  0  0  0  0  0  0  0  0  0
   -3.3205    0.7731    0.0000 O   0  0  0  0  0  0  0  0  0  0  0  0
   -1.4945    0.9706    0.0000 C   0  0  0  0  0  0  0  0  0  0  0  0
   -1.7024   -0.0076    0.0000 F   0  0  0  0  0  0  0  0  0  0  0  0
   -2.4456    0.6615    0.0000 F   0  0  0  0  0  0  0  0  0  0  0  0
  1  2  1  0  0  0  0
  2  3  1  0  0  0  0
  2  4  1  0  0  0  0
  4  5  1  0  0  0  0
  5  6  2  0  0  0  0
  5  7  1  0  0  0  0
  7  8  1  6  0  0  0
  7  9  1  0  0  0  0
  9 10  1  0  0  0  0
 10 11  1  0  0  0  0
 10 18  2  6  0  0  0
 10 19  1  0  0  0  0
 11 12  1  0  0  0  0
 12 17  2  0  0  0  0
 12 13  1  0  0  0  0
 13 14  2  0  0  0  0
 14 15  1  0  0  0  0
 15 16  2  0  0  0  0
 16 17  1  0  0  0  0
 20 19  1  1  0  0  0
 20 21  1  0  0  0  0
 20 34  1  0  0  0  0
 21 22  1  6  0  0  0
 21 24  1  0  0  0  0
 22 23  1  0  0  0  0
 24 25  1  0  0  0  0
 25 26  1  6  0  0  0
 25 34  1  0  0  0  0
 26 32  1  0  0  0  0
 26 27  1  0  0  0  0
 27 28  2  0  0  0  0
 28 29  1  0  0  0  0
 29 30  1  0  0  0  0
 29 31  2  0  0  0  0
 31 32  1  0  0  0  0
 32 33  2  0  0  0  0
 34 35  1  0  0  0  0
 34 36  1  0  0  0  0
M  END
> <NMREDATA_VERSION>
1.1

> <NMREDATA_LEVEL>
0

> <NMREDATA_SOLVENT>
CD3CN

> <NMREDATA_FORMULA>
C21H27F2N4O8P

> <NMREDATA_SMILES>
OC[C@H]1O[C@H](C([C@@H]1O[P@](=O)(N[C@@H](C(=O)OC(C)C)C)Oc1ccccc1)(F)F)n1ccc(nc1=O)N

> <NMREDATA_ASSIGNMENT>
P10, 2.94, 10

> <NMREDATA_1D_31P>
Larmor=203
2.94, L=P10

$$$$
