
 OpenBabel06112616462D

 30 30  0  0  0  0  0  0  0  0999 V2000
    7.6962   -1.5000    0.0000 C   0  0  0  0  0  0  0  0  0  0  0  0
    8.6962   -1.5000    0.0000 S   0  0  0  0  0  0  0  0  0  0  0  0
    8.6962   -2.5000    0.0000 O   0  5  0  0  0  0  0  0  0  0  0  0
    9.6962   -1.5000    0.0000 O   0  0  0  0  0  0  0  0  0  0  0  0
    8.6962   -0.5000    0.0000 O   0  0  0  0  0  0  0  0  0  0  0  0
    6.8301   -2.0000    0.0000 F   0  0  0  0  0  0  0  0  0  0  0  0
    7.6962   -2.5000    0.0000 F   0  0  0  0  0  0  0  0  0  0  0  0
    7.1962   -0.6340    0.0000 F   0  0  0  0  0  0  0  0  0  0  0  0
    4.8301   -4.3660    0.0000 C   0  0  0  0  0  0  0  0  0  0  0  0
    5.8301   -4.3660    0.0000 C   0  0  0  0  0  0  0  0  0  0  0  0
    5.3301   -3.5000    0.0000 C   0  0  0  0  0  0  0  0  0  0  0  0
    4.8301   -5.3660    0.0000 C   0  0  0  0  0  0  0  0  0  0  0  0
    3.9641   -3.8660    0.0000 C   0  0  0  0  0  0  0  0  0  0  0  0
    3.0981   -4.3660    0.0000 C   0  0  0  0  0  0  0  0  0  0  0  0
    2.2321   -3.8660    0.0000 C   0  0  0  0  0  0  0  0  0  0  0  0
    1.3660   -4.3660    0.0000 C   0  0  0  0  0  0  0  0  0  0  0  0
    0.8660   -5.2321    0.0000 C   0  0  0  0  0  0  0  0  0  0  0  0
    1.8660   -5.2321    0.0000 C   0  0  0  0  0  0  0  0  0  0  0  0
    0.5000   -3.8660    0.0000 C   0  0  0  0  0  0  0  0  0  0  0  0
    2.2321   -2.8660    0.0000 C   0  0  0  0  0  0  0  0  0  0  0  0
    1.3660   -2.3660    0.0000 P   0  3  0  0  0  0  0  0  0  0  0  0
    2.2321   -1.8660    0.0000 C   0  0  0  0  0  0  0  0  0  0  0  0
    0.5000   -2.8660    0.0000 C   0  0  0  0  0  0  0  0  0  0  0  0
    0.5000   -1.8660    0.0000 C   0  0  0  0  0  0  0  0  0  0  0  0
    3.0981   -2.3660    0.0000 C   0  0  0  0  0  0  0  0  0  0  0  0
    3.0981   -1.3660    0.0000 C   0  0  0  0  0  0  0  0  0  0  0  0
    2.5981   -0.5000    0.0000 C   0  0  0  0  0  0  0  0  0  0  0  0
    2.0981   -1.3660    0.0000 C   0  0  0  0  0  0  0  0  0  0  0  0
    3.9641   -0.8660    0.0000 C   0  0  0  0  0  0  0  0  0  0  0  0
    3.9641   -2.8660    0.0000 C   0  0  0  0  0  0  0  0  0  0  0  0
  1  2  1  0  0  0  0
  1  6  1  0  0  0  0
  1  7  1  0  0  0  0
  1  8  1  0  0  0  0
  2  3  1  0  0  0  0
  2  4  2  0  0  0  0
  2  5  2  0  0  0  0
  9 10  1  0  0  0  0
  9 11  1  0  0  0  0
  9 12  1  0  0  0  0
  9 13  1  0  0  0  0
 13 30  2  0  0  0  0
 13 14  1  0  0  0  0
 14 15  2  0  0  0  0
 15 16  1  0  0  0  0
 15 20  1  0  0  0  0
 16 17  1  0  0  0  0
 16 18  1  0  0  0  0
 16 19  1  0  0  0  0
 20 21  1  0  0  0  0
 20 25  2  0  0  0  0
 21 24  1  0  0  0  0
 21 22  1  0  0  0  0
 21 23  1  0  0  0  0
 23 24  1  0  0  0  0
 25 26  1  0  0  0  0
 25 30  1  0  0  0  0
 26 27  1  0  0  0  0
 26 28  1  0  0  0  0
 26 29  1  0  0  0  0
M  END
> <NMREDATA_VERSION>
1.1

> <NMREDATA_LEVEL>
0

> <NMREDATA_SOLVENT>
CD2Cl2

> <NMREDATA_FORMULA>
C22H36F3O3PS

> <NMREDATA_SMILES>
FC(S(=O)(=O)[O-])(F)F.CC(c1cc(cc(c1[P+]1(C)CC1)C(C)(C)C)C(C)(C)C)(C)C

> <NMREDATA_ASSIGNMENT>
P21, -115.30, 21

> <NMREDATA_1D_31P>
Larmor=121
-115.30, L=P21

$$$$
