
 OpenBabel06112616462D

 35 40  0  0  0  0  0  0  0  0999 V2000
    3.7209    0.9302    0.0000 O   0  0  0  0  0  0  0  0  0  0  0  0
    3.7209    0.0000    0.0000 P   0  0  0  0  0  0  0  0  0  0  0  0
    4.6512    0.0000    0.0000 C   0  0  0  0  0  0  0  0  0  0  0  0
    5.1163   -0.8056    0.0000 C   0  0  0  0  0  0  0  0  0  0  0  0
    6.0465   -0.8056    0.0000 C   0  0  0  0  0  0  0  0  0  0  0  0
    6.5116    0.0000    0.0000 C   0  0  0  0  0  0  0  0  0  0  0  0
    6.0465    0.8056    0.0000 C   0  0  0  0  0  0  0  0  0  0  0  0
    5.1163    0.8056    0.0000 C   0  0  0  0  0  0  0  0  0  0  0  0
    3.7209   -0.9302    0.0000 C   0  0  0  0  0  0  0  0  0  0  0  0
    2.9153   -1.3953    0.0000 C   0  0  0  0  0  0  0  0  0  0  0  0
    2.9153   -2.3256    0.0000 C   0  0  0  0  0  0  0  0  0  0  0  0
    3.7209   -2.7907    0.0000 C   0  0  0  0  0  0  0  0  0  0  0  0
    4.5265   -2.3256    0.0000 C   0  0  0  0  0  0  0  0  0  0  0  0
    4.5265   -1.3953    0.0000 C   0  0  0  0  0  0  0  0  0  0  0  0
    0.0000    0.0000    0.0000 C   0  0  0  0  0  0  0  0  0  0  0  0
   -0.4651    0.8056    0.0000 C   0  0  0  0  0  0  0  0  0  0  0  0
    0.0000    1.6112    0.0000 C   0  0  0  0  0  0  0  0  0  0  0  0
    0.9302    1.6112    0.0000 C   0  0  0  0  0  0  0  0  0  0  0  0
    1.3953    2.4168    0.0000 C   0  0  0  0  0  0  0  0  0  0  0  0
    0.9302    3.2224    0.0000 C   0  0  0  0  0  0  0  0  0  0  0  0
    0.0000    3.2224    0.0000 C   0  0  0  0  0  0  0  0  0  0  0  0
   -0.4651    2.4168    0.0000 C   0  0  0  0  0  0  0  0  0  0  0  0
   -1.3953    0.8056    0.0000 N   0  0  0  0  0  0  0  0  0  0  0  0
   -1.8605    0.0000    0.0000 C   0  0  0  0  0  0  0  0  0  0  0  0
   -2.7907    0.0000    0.0000 C   0  0  0  0  0  0  0  0  0  0  0  0
   -3.2558   -0.8056    0.0000 C   0  0  0  0  0  0  0  0  0  0  0  0
   -2.7907   -1.6112    0.0000 C   0  0  0  0  0  0  0  0  0  0  0  0
   -1.8605   -1.6112    0.0000 C   0  0  0  0  0  0  0  0  0  0  0  0
   -1.3953   -0.8056    0.0000 C   0  0  0  0  0  0  0  0  0  0  0  0
   -0.4651   -0.8056    0.0000 C   0  0  0  0  0  0  0  0  0  0  0  0
    0.0000   -1.6112    0.0000 C   0  0  0  0  0  0  0  0  0  0  0  0
   -0.3784   -2.4610    0.0000 C   0  0  0  0  0  0  0  0  0  0  0  0
    0.3129   -3.0835    0.0000 C   0  0  0  0  0  0  0  0  0  0  0  0
    1.1185   -2.6184    0.0000 C   0  0  0  0  0  0  0  0  0  0  0  0
    0.9251   -1.7084    0.0000 S   0  0  0  0  0  0  0  0  0  0  0  0
  1  2  2  0  0  0  0
  2  3  1  0  0  0  0
  2  9  1  0  0  0  0
  2 15  1  0  0  0  0
  3  8  2  0  0  0  0
  3  4  1  0  0  0  0
  4  5  2  0  0  0  0
  5  6  1  0  0  0  0
  6  7  2  0  0  0  0
  7  8  1  0  0  0  0
  9 14  2  0  0  0  0
  9 10  1  0  0  0  0
 10 11  2  0  0  0  0
 11 12  1  0  0  0  0
 12 13  2  0  0  0  0
 13 14  1  0  0  0  0
 15 30  2  0  0  0  0
 15 16  1  0  0  0  0
 16 17  1  0  0  0  0
 16 23  2  0  0  0  0
 17 22  2  0  0  0  0
 17 18  1  0  0  0  0
 18 19  2  0  0  0  0
 19 20  1  0  0  0  0
 20 21  2  0  0  0  0
 21 22  1  0  0  0  0
 23 24  1  0  0  0  0
 24 29  2  0  0  0  0
 24 25  1  0  0  0  0
 25 26  2  0  0  0  0
 26 27  1  0  0  0  0
 27 28  2  0  0  0  0
 28 29  1  0  0  0  0
 29 30  1  0  0  0  0
 30 31  1  0  0  0  0
 31 35  1  0  0  0  0
 31 32  2  0  0  0  0
 32 33  1  0  0  0  0
 33 34  2  0  0  0  0
 34 35  1  0  0  0  0
M  END
> <NMREDATA_VERSION>
1.1

> <NMREDATA_LEVEL>
0

> <NMREDATA_SOLVENT>
CDCl3

> <NMREDATA_FORMULA>
C31H22NOPS

> <NMREDATA_SMILES>
O=P(c1c(nc2c(c1c1cccs1)cccc2)c1ccccc1)(c1ccccc1)c1ccccc1

> <NMREDATA_ASSIGNMENT>
P2, 20.28, 2

> <NMREDATA_1D_31P>
Larmor=162
20.28, L=P2

$$$$
