
 OpenBabel06112616472D

 34 39  0  0  1  0  0  0  0  0999 V2000
   -0.6273   -0.6138    0.0000 C   0  0  0  0  0  0  0  0  0  0  0  0
   -0.5227    0.3807    0.0000 C   0  0  3  0  0  0  0  0  0  0  0  0
   -0.9295    1.2943    0.0000 C   0  0  0  0  0  0  0  0  0  0  0  0
   -0.3417    2.1033    0.0000 C   0  0  0  0  0  0  0  0  0  0  0  0
   -0.7484    3.0168    0.0000 C   0  0  0  0  0  0  0  0  0  0  0  0
   -1.7429    3.1214    0.0000 C   0  0  0  0  0  0  0  0  0  0  0  0
   -2.3307    2.3124    0.0000 C   0  0  0  0  0  0  0  0  0  0  0  0
   -1.9240    1.3988    0.0000 C   0  0  0  0  0  0  0  0  0  0  0  0
    0.6528    1.9988    0.0000 C   0  0  0  0  0  0  0  0  0  0  0  0
    1.0596    1.0852    0.0000 N   0  0  0  0  0  0  0  0  0  0  0  0
    2.0541    1.1898    0.0000 C   0  0  0  0  0  0  0  0  0  0  0  0
    2.2620    2.1679    0.0000 C   0  0  0  0  0  0  0  0  0  0  0  0
    1.3960    2.6679    0.0000 N   0  0  0  0  0  0  0  0  0  0  0  0
    3.2131    2.4769    0.0000 C   0  0  0  0  0  0  0  0  0  0  0  0
    3.9562    1.8078    0.0000 C   0  0  0  0  0  0  0  0  0  0  0  0
    3.7483    0.8296    0.0000 C   0  0  0  0  0  0  0  0  0  0  0  0
    2.7972    0.5206    0.0000 C   0  0  0  0  0  0  0  0  0  0  0  0
    0.4718    0.2762    0.0000 C   0  0  0  0  0  0  0  0  0  0  0  0
    0.8785   -0.6373    0.0000 O   0  0  0  0  0  0  0  0  0  0  0  0
    1.0000   -1.0000    0.0000 C   0  0  0  0  0  0  0  0  0  0  0  0
    1.0000    0.0000    0.0000 P   0  0  0  0  0  0  0  0  0  0  0  0
    2.0000    0.0000    0.0000 C   0  0  0  0  0  0  0  0  0  0  0  0
    2.5000    0.8660    0.0000 C   0  0  0  0  0  0  0  0  0  0  0  0
    3.5000    0.8660    0.0000 C   0  0  0  0  0  0  0  0  0  0  0  0
    4.0000    0.0000    0.0000 C   0  0  0  0  0  0  0  0  0  0  0  0
    3.5000   -0.8660    0.0000 C   0  0  0  0  0  0  0  0  0  0  0  0
    2.5000   -0.8660    0.0000 C   0  0  0  0  0  0  0  0  0  0  0  0
    1.0000    1.0000    0.0000 C   0  0  0  0  0  0  0  0  0  0  0  0
    0.1340    1.5000    0.0000 C   0  0  0  0  0  0  0  0  0  0  0  0
    0.1340    2.5000    0.0000 C   0  0  0  0  0  0  0  0  0  0  0  0
    1.0000    3.0000    0.0000 C   0  0  0  0  0  0  0  0  0  0  0  0
    1.8660    2.5000    0.0000 C   0  0  0  0  0  0  0  0  0  0  0  0
    1.8660    1.5000    0.0000 C   0  0  0  0  0  0  0  0  0  0  0  0
    0.0000    0.0000    0.0000 O   0  0  0  0  0  0  0  0  0  0  0  0
  1  2  1  0  0  0  0
  2 18  1  0  0  0  0
  2  3  1  0  0  0  0
  2 20  1  0  0  0  0
  3  8  2  0  0  0  0
  3  4  1  0  0  0  0
  4  5  2  0  0  0  0
  4  9  1  0  0  0  0
  5  6  1  0  0  0  0
  6  7  2  0  0  0  0
  7  8  1  0  0  0  0
  9 13  2  0  0  0  0
  9 10  1  0  0  0  0
 10 11  1  0  0  0  0
 10 18  1  0  0  0  0
 11 17  2  0  0  0  0
 11 12  1  0  0  0  0
 12 13  1  0  0  0  0
 12 14  2  0  0  0  0
 14 15  1  0  0  0  0
 15 16  2  0  0  0  0
 16 17  1  0  0  0  0
 18 19  2  0  0  0  0
 20 21  1  0  0  0  0
 21 22  1  0  0  0  0
 21 28  1  0  0  0  0
 21 34  2  0  0  0  0
 22 27  2  0  0  0  0
 22 23  1  0  0  0  0
 23 24  2  0  0  0  0
 24 25  1  0  0  0  0
 25 26  2  0  0  0  0
 26 27  1  0  0  0  0
 28 33  2  0  0  0  0
 28 29  1  0  0  0  0
 29 30  2  0  0  0  0
 30 31  1  0  0  0  0
 31 32  2  0  0  0  0
 32 33  1  0  0  0  0
M  END
> <NMREDATA_VERSION>
1.1

> <NMREDATA_LEVEL>
0

> <NMREDATA_SOLVENT>
CDCl3

> <NMREDATA_FORMULA>
C29H23N2O2P

> <NMREDATA_SMILES>
O=C1n2c(-c3c(C1(C)CP(=O)(c1ccccc1)c1ccccc1)cccc3)nc1c2cccc1

> <NMREDATA_ASSIGNMENT>
P21, 26.20, 21

> <NMREDATA_1D_31P>
Larmor=162
26.20, L=P21

$$$$
