
 OpenBabel06112616432D

 37 39  0  0  0  0  0  0  0  0999 V2000
    2.5000   -0.1340    0.0000 C    0  0  0  0  0  0  0  0  0  0  0  0
    1.5000   -0.1340    0.0000 C    0  0  0  0  0  0  0  0  0  0  0  0
    1.0000   -1.0000    0.0000 C    0  0  0  0  0  0  0  0  0  0  0  0
    0.0000   -1.0000    0.0000 P    0  0  0  0  0  0  0  0  0  0  0  0
    0.0000   -2.0000    0.0000 O    0  0  0  0  0  0  0  0  0  0  0  0
   -1.0000   -1.0000    0.0000 C    0  0  0  0  0  0  0  0  0  0  0  0
   -1.5000   -0.1340    0.0000 C    0  0  0  0  0  0  0  0  0  0  0  0
   -2.5000   -0.1340    0.0000 C    0  0  0  0  0  0  0  0  0  0  0  0
   -3.0000   -1.0000    0.0000 C    0  0  0  0  0  0  0  0  0  0  0  0
   -2.5000   -1.8660    0.0000 C    0  0  0  0  0  0  0  0  0  0  0  0
   -1.5000   -1.8660    0.0000 C    0  0  0  0  0  0  0  0  0  0  0  0
    0.0000    0.0000    0.0000 C    0  0  0  0  0  0  0  0  0  0  0  0
    0.8660    0.5000    0.0000 C    0  0  0  0  0  0  0  0  0  0  0  0
    0.8660    1.5000    0.0000 C    0  0  0  0  0  0  0  0  0  0  0  0
    0.0000    2.0000    0.0000 C    0  0  0  0  0  0  0  0  0  0  0  0
   -0.8660    1.5000    0.0000 C    0  0  0  0  0  0  0  0  0  0  0  0
   -0.8660    0.5000    0.0000 C    0  0  0  0  0  0  0  0  0  0  0  0
    3.0000   -1.0000    0.0000 O    0  0  0  0  0  0  0  0  0  0  0  0
    2.5000   -1.8660    0.0000 Si   0  0  0  0  0  0  0  0  0  0  0  0
    3.3660   -2.3660    0.0000 C    0  0  0  0  0  0  0  0  0  0  0  0
    4.2321   -1.8660    0.0000 C    0  0  0  0  0  0  0  0  0  0  0  0
    3.3660   -3.3660    0.0000 C    0  0  0  0  0  0  0  0  0  0  0  0
    2.0000   -2.7321    0.0000 C    0  0  0  0  0  0  0  0  0  0  0  0
    2.5000   -3.5981    0.0000 C    0  0  0  0  0  0  0  0  0  0  0  0
    1.0000   -2.7321    0.0000 C    0  0  0  0  0  0  0  0  0  0  0  0
    1.6340   -1.3660    0.0000 C    0  0  0  0  0  0  0  0  0  0  0  0
    0.7679   -1.8660    0.0000 C    0  0  0  0  0  0  0  0  0  0  0  0
    1.6340   -0.3660    0.0000 C    0  0  0  0  0  0  0  0  0  0  0  0
    3.0000    0.7321    0.0000 C    0  0  0  0  0  0  0  0  0  0  0  0
    2.5000    1.5981    0.0000 C    0  0  0  0  0  0  0  0  0  0  0  0
    3.0000    2.4641    0.0000 C    0  0  0  0  0  0  0  0  0  0  0  0
    4.0000    2.4641    0.0000 C    0  0  0  0  0  0  0  0  0  0  0  0
    4.5000    3.3301    0.0000 N    0  0  0  0  0  0  0  0  0  0  0  0
    5.5000    3.3301    0.0000 C    0  0  0  0  0  0  0  0  0  0  0  0
    4.0000    4.1962    0.0000 C    0  0  0  0  0  0  0  0  0  0  0  0
    4.5000    1.5981    0.0000 C    0  0  0  0  0  0  0  0  0  0  0  0
    4.0000    0.7321    0.0000 C    0  0  0  0  0  0  0  0  0  0  0  0
  1  2  2  0  0  0  0
  1 18  1  0  0  0  0
  1 29  1  0  0  0  0
  2  3  1  0  0  0  0
  3  4  1  0  0  0  0
  4  5  2  0  0  0  0
  4  6  1  0  0  0  0
  4 12  1  0  0  0  0
  6 11  2  0  0  0  0
  6  7  1  0  0  0  0
  7  8  2  0  0  0  0
  8  9  1  0  0  0  0
  9 10  2  0  0  0  0
 10 11  1  0  0  0  0
 12 17  2  0  0  0  0
 12 13  1  0  0  0  0
 13 14  2  0  0  0  0
 14 15  1  0  0  0  0
 15 16  2  0  0  0  0
 16 17  1  0  0  0  0
 18 19  1  0  0  0  0
 19 20  1  0  0  0  0
 19 23  1  0  0  0  0
 19 26  1  0  0  0  0
 20 21  1  0  0  0  0
 20 22  1  0  0  0  0
 23 24  1  0  0  0  0
 23 25  1  0  0  0  0
 26 27  1  0  0  0  0
 26 28  1  0  0  0  0
 29 37  2  0  0  0  0
 29 30  1  0  0  0  0
 30 31  2  0  0  0  0
 31 32  1  0  0  0  0
 32 33  1  0  0  0  0
 32 36  2  0  0  0  0
 33 34  1  0  0  0  0
 33 35  1  0  0  0  0
 36 37  1  0  0  0  0
M  END
> <NMREDATA_VERSION>
1.1

> <NMREDATA_LEVEL>
0

> <NMREDATA_SOLVENT>
CDCl3

> <NMREDATA_FORMULA>
C32H44NO2PSi

> <NMREDATA_SMILES>
CC([Si](C(C)C)(C(C)C)O/C(=C\CP(=O)(c1ccccc1)c1ccccc1)/c1ccc(cc1)N(C)C)C

> <NMREDATA_ASSIGNMENT>
P4, 31.50, 4

> <NMREDATA_1D_31P>
Larmor=202
31.50, L=P4

$$$$
