
 OpenBabel06112616492D

 30 33  0  0  1  0  0  0  0  0999 V2000
    2.5482    0.3177    0.0000 C   0  0  0  0  0  0  0  0  0  0  0  0
    1.5988    0.5195    0.0000 O   0  0  0  0  0  0  0  0  0  0  0  0
    0.9494   -0.2018    0.0000 C   0  0  0  0  0  0  0  0  0  0  0  0
    1.2493   -1.1249    0.0000 C   0  0  0  0  0  0  0  0  0  0  0  0
    0.5999   -1.8462    0.0000 C   0  0  0  0  0  0  0  0  0  0  0  0
   -0.3495   -1.6444    0.0000 C   0  0  0  0  0  0  0  0  0  0  0  0
   -0.9990   -2.3657    0.0000 C   0  0  3  0  0  0  0  0  0  0  0  0
   -1.9484   -2.1639    0.0000 C   0  0  0  0  0  0  0  0  0  0  0  0
   -2.2483   -1.2408    0.0000 C   0  0  0  0  0  0  0  0  0  0  0  0
   -3.1977   -1.0390    0.0000 O   0  0  0  0  0  0  0  0  0  0  0  0
   -0.3991   -4.2118    0.0000 P   0  0  0  0  0  0  0  0  0  0  0  0
    0.2503   -3.4905    0.0000 O   0  0  0  0  0  0  0  0  0  0  0  0
   -1.2858   -4.6066    0.0000 N   0  0  0  0  0  0  0  0  0  0  0  0
   -2.1263   -4.1213    0.0000 C   0  0  0  0  0  0  0  0  0  0  0  0
   -2.1263   -3.1507    0.0000 C   0  0  0  0  0  0  0  0  0  0  0  0
   -2.9669   -2.6654    0.0000 C   0  0  0  0  0  0  0  0  0  0  0  0
   -3.8075   -3.1507    0.0000 C   0  0  0  0  0  0  0  0  0  0  0  0
   -3.8075   -4.1213    0.0000 C   0  0  0  0  0  0  0  0  0  0  0  0
   -2.9669   -4.6066    0.0000 C   0  0  0  0  0  0  0  0  0  0  0  0
   -1.1843   -5.5719    0.0000 C   0  0  0  0  0  0  0  0  0  0  0  0
   -0.2350   -5.7737    0.0000 C   0  0  0  0  0  0  0  0  0  0  0  0
    0.2503   -4.9331    0.0000 N   0  0  0  0  0  0  0  0  0  0  0  0
    1.2156   -4.8317    0.0000 C   0  0  0  0  0  0  0  0  0  0  0  0
    1.7861   -5.6169    0.0000 C   0  0  0  0  0  0  0  0  0  0  0  0
    2.7514   -5.5154    0.0000 C   0  0  0  0  0  0  0  0  0  0  0  0
    3.1461   -4.6288    0.0000 C   0  0  0  0  0  0  0  0  0  0  0  0
    2.5757   -3.8435    0.0000 C   0  0  0  0  0  0  0  0  0  0  0  0
    1.6104   -3.9450    0.0000 C   0  0  0  0  0  0  0  0  0  0  0  0
   -0.6495   -0.7213    0.0000 C   0  0  0  0  0  0  0  0  0  0  0  0
    0.0000    0.0000    0.0000 C   0  0  0  0  0  0  0  0  0  0  0  0
  1  2  1  0  0  0  0
  2  3  1  0  0  0  0
  3 30  2  0  0  0  0
  3  4  1  0  0  0  0
  4  5  2  0  0  0  0
  5  6  1  0  0  0  0
  6  7  1  0  0  0  0
  6 29  2  0  0  0  0
  7  8  1  0  0  0  0
  7 11  1  0  0  0  0
  8  9  1  0  0  0  0
  9 10  2  0  0  0  0
 11 22  1  0  0  0  0
 11 12  2  0  0  0  0
 11 13  1  0  0  0  0
 13 14  1  0  0  0  0
 13 20  1  0  0  0  0
 14 19  2  0  0  0  0
 14 15  1  0  0  0  0
 15 16  2  0  0  0  0
 16 17  1  0  0  0  0
 17 18  2  0  0  0  0
 18 19  1  0  0  0  0
 20 21  1  0  0  0  0
 21 22  1  0  0  0  0
 22 23  1  0  0  0  0
 23 28  2  0  0  0  0
 23 24  1  0  0  0  0
 24 25  2  0  0  0  0
 25 26  1  0  0  0  0
 26 27  2  0  0  0  0
 27 28  1  0  0  0  0
 29 30  1  0  0  0  0
M  END
> <NMREDATA_VERSION>
1.1

> <NMREDATA_LEVEL>
0

> <NMREDATA_SOLVENT>
CDCl3

> <NMREDATA_FORMULA>
C24H25N2O3P

> <NMREDATA_SMILES>
COc1ccc(cc1)C(P1(=O)N(CCN1c1ccccc1)c1ccccc1)CC=O

> <NMREDATA_ASSIGNMENT>
P11, 29.59, 11

> <NMREDATA_1D_31P>
Larmor=162
29.59, L=P11

$$$$
