
 OpenBabel06112616452D

 84 91  0  0  1  0  0  0  0  0999 V2000
    1.8259   -1.4677    0.0000 C    0  0  0  0  0  0  0  0  0  0  0  0
    0.9785   -0.9785    0.0000 C    0  0  0  0  0  0  0  0  0  0  0  0
    0.0000   -0.9785    0.0000 C    0  0  0  0  0  0  0  0  0  0  0  0
    0.4892   -1.8259    0.0000 C    0  0  0  0  0  0  0  0  0  0  0  0
    0.9785    0.0000    0.0000 Si   0  0  0  0  0  0  0  0  0  0  0  0
    1.9570    0.0000    0.0000 C    0  0  0  0  0  0  0  0  0  0  0  0
    2.4462    0.8474    0.0000 C    0  0  0  0  0  0  0  0  0  0  0  0
    3.4247    0.8474    0.0000 C    0  0  0  0  0  0  0  0  0  0  0  0
    3.9140    0.0000    0.0000 C    0  0  0  0  0  0  0  0  0  0  0  0
    3.4247   -0.8474    0.0000 C    0  0  0  0  0  0  0  0  0  0  0  0
    2.4462   -0.8474    0.0000 C    0  0  0  0  0  0  0  0  0  0  0  0
    0.9785    0.9785    0.0000 C    0  0  0  0  0  0  0  0  0  0  0  0
    0.1311    1.4677    0.0000 C    0  0  0  0  0  0  0  0  0  0  0  0
    0.1311    2.4462    0.0000 C    0  0  0  0  0  0  0  0  0  0  0  0
    0.9785    2.9355    0.0000 C    0  0  0  0  0  0  0  0  0  0  0  0
    1.8259    2.4462    0.0000 C    0  0  0  0  0  0  0  0  0  0  0  0
    1.8259    1.4677    0.0000 C    0  0  0  0  0  0  0  0  0  0  0  0
    0.0000    0.0000    0.0000 O    0  0  0  0  0  0  0  0  0  0  0  0
   -0.4892   -0.8474    0.0000 C    0  0  2  0  0  0  0  0  0  0  0  0
   -1.4677   -0.8474    0.0000 C    0  0  2  0  0  0  0  0  0  0  0  0
   -2.4462    0.8474    0.0000 N    0  0  0  0  0  0  0  0  0  0  0  0
   -1.9570    1.6948    0.0000 C    0  0  0  0  0  0  0  0  0  0  0  0
   -2.4462    2.5422    0.0000 C    0  0  0  0  0  0  0  0  0  0  0  0
   -1.9570    3.3896    0.0000 C    0  0  0  0  0  0  0  0  0  0  0  0
   -0.9785    3.3896    0.0000 F    0  0  0  0  0  0  0  0  0  0  0  0
   -2.4462    4.2370    0.0000 C    0  0  0  0  0  0  0  0  0  0  0  0
   -1.9570    5.0844    0.0000 F    0  0  0  0  0  0  0  0  0  0  0  0
   -3.4247    4.2370    0.0000 C    0  0  0  0  0  0  0  0  0  0  0  0
   -3.9140    5.0844    0.0000 F    0  0  0  0  0  0  0  0  0  0  0  0
   -3.9140    3.3896    0.0000 C    0  0  0  0  0  0  0  0  0  0  0  0
   -4.8925    3.3896    0.0000 F    0  0  0  0  0  0  0  0  0  0  0  0
   -3.4247    2.5422    0.0000 C    0  0  0  0  0  0  0  0  0  0  0  0
   -3.9140    1.6948    0.0000 F    0  0  0  0  0  0  0  0  0  0  0  0
   -0.9785    1.6948    0.0000 O    0  0  0  0  0  0  0  0  0  0  0  0
   -3.4247    0.8474    0.0000 C    0  0  0  0  0  0  0  0  0  0  0  0
   -1.9570   -1.6948    0.0000 C    0  0  0  0  0  0  0  0  0  0  0  0
   -2.9355   -1.6948    0.0000 N    0  0  0  0  0  0  0  0  0  0  0  0
   -3.4247   -2.5422    0.0000 C    0  0  1  0  0  0  0  0  0  0  0  0
   -2.9355   -3.3896    0.0000 C    0  0  1  0  0  0  0  0  0  0  0  0
   -1.9570   -3.3896    0.0000 C    0  0  0  0  0  0  0  0  0  0  0  0
   -3.4247   -4.2370    0.0000 O    0  0  0  0  0  0  0  0  0  0  0  0
   -2.9355   -5.0844    0.0000 Si   0  0  0  0  0  0  0  0  0  0  0  0
   -3.7829   -5.5737    0.0000 C    0  0  0  0  0  0  0  0  0  0  0  0
   -3.7829   -6.5521    0.0000 C    0  0  0  0  0  0  0  0  0  0  0  0
   -4.6303   -7.0414    0.0000 C    0  0  0  0  0  0  0  0  0  0  0  0
   -5.4777   -6.5521    0.0000 C    0  0  0  0  0  0  0  0  0  0  0  0
   -5.4777   -5.5737    0.0000 C    0  0  0  0  0  0  0  0  0  0  0  0
   -4.6303   -5.0844    0.0000 C    0  0  0  0  0  0  0  0  0  0  0  0
   -2.4462   -5.9318    0.0000 C    0  0  0  0  0  0  0  0  0  0  0  0
   -1.4677   -5.9318    0.0000 C    0  0  0  0  0  0  0  0  0  0  0  0
   -0.9785   -6.7792    0.0000 C    0  0  0  0  0  0  0  0  0  0  0  0
   -1.4677   -7.6266    0.0000 C    0  0  0  0  0  0  0  0  0  0  0  0
   -2.4462   -7.6266    0.0000 C    0  0  0  0  0  0  0  0  0  0  0  0
   -2.9355   -6.7792    0.0000 C    0  0  0  0  0  0  0  0  0  0  0  0
   -2.0881   -4.5952    0.0000 C    0  0  0  0  0  0  0  0  0  0  0  0
   -1.5988   -3.7478    0.0000 C    0  0  0  0  0  0  0  0  0  0  0  0
   -2.5773   -3.7478    0.0000 C    0  0  0  0  0  0  0  0  0  0  0  0
   -1.2407   -5.0844    0.0000 C    0  0  0  0  0  0  0  0  0  0  0  0
   -5.3817   -2.5422    0.0000 C    0  0  0  0  0  0  0  0  0  0  0  0
   -5.8710   -1.6948    0.0000 P    0  3  0  0  0  0  0  0  0  0  0  0
   -6.7184   -2.1840    0.0000 C    0  0  0  0  0  0  0  0  0  0  0  0
   -7.5658   -1.6948    0.0000 C    0  0  0  0  0  0  0  0  0  0  0  0
   -8.4132   -2.1840    0.0000 C    0  0  0  0  0  0  0  0  0  0  0  0
   -9.2606   -1.6948    0.0000 O    0  0  0  0  0  0  0  0  0  0  0  0
   -9.2606   -0.7163    0.0000 C    0  0  0  0  0  0  0  0  0  0  0  0
   -8.4132   -3.1625    0.0000 C    0  0  0  0  0  0  0  0  0  0  0  0
   -7.5658   -3.6518    0.0000 C    0  0  0  0  0  0  0  0  0  0  0  0
   -7.5658   -4.6303    0.0000 O    0  0  0  0  0  0  0  0  0  0  0  0
   -8.4132   -5.1195    0.0000 C    0  0  0  0  0  0  0  0  0  0  0  0
   -6.7184   -3.1625    0.0000 C    0  0  0  0  0  0  0  0  0  0  0  0
   -6.3602   -0.8474    0.0000 C    0  0  0  0  0  0  0  0  0  0  0  0
   -5.8710    0.0000    0.0000 C    0  0  0  0  0  0  0  0  0  0  0  0
   -6.3602    0.8474    0.0000 C    0  0  0  0  0  0  0  0  0  0  0  0
   -7.3387    0.8474    0.0000 C    0  0  0  0  0  0  0  0  0  0  0  0
   -7.8280    0.0000    0.0000 C    0  0  0  0  0  0  0  0  0  0  0  0
   -7.3387   -0.8474    0.0000 C    0  0  0  0  0  0  0  0  0  0  0  0
   -5.0236   -1.2056    0.0000 C    0  0  0  0  0  0  0  0  0  0  0  0
   -4.1762   -1.6948    0.0000 C    0  0  0  0  0  0  0  0  0  0  0  0
   -3.3288   -1.2056    0.0000 C    0  0  0  0  0  0  0  0  0  0  0  0
   -3.3288   -0.2271    0.0000 C    0  0  0  0  0  0  0  0  0  0  0  0
   -4.1762    0.2622    0.0000 C    0  0  0  0  0  0  0  0  0  0  0  0
   -5.0236   -0.2271    0.0000 C    0  0  0  0  0  0  0  0  0  0  0  0
   -1.4677   -2.5422    0.0000 O    0  0  0  0  0  0  0  0  0  0  0  0
    0.0000   -1.6948    0.0000 C    0  0  0  0  0  0  0  0  0  0  0  0
  1  2  1  0  0  0  0
  2  3  1  0  0  0  0
  2  4  1  0  0  0  0
  2  5  1  0  0  0  0
  5  6  1  0  0  0  0
  5 12  1  0  0  0  0
  5 18  1  0  0  0  0
  6 11  2  0  0  0  0
  6  7  1  0  0  0  0
  7  8  2  0  0  0  0
  8  9  1  0  0  0  0
  9 10  2  0  0  0  0
 10 11  1  0  0  0  0
 12 17  2  0  0  0  0
 12 13  1  0  0  0  0
 13 14  2  0  0  0  0
 14 15  1  0  0  0  0
 15 16  2  0  0  0  0
 16 17  1  0  0  0  0
 18 19  1  0  0  0  0
 19 20  1  0  0  0  0
 19 84  1  1  0  0  0
 20 21  1  0  0  0  0
 20 36  1  1  0  0  0
 21 22  1  0  0  0  0
 21 35  1  0  0  0  0
 22 23  1  0  0  0  0
 22 34  2  0  0  0  0
 23 32  2  0  0  0  0
 23 24  1  0  0  0  0
 24 25  1  0  0  0  0
 24 26  2  0  0  0  0
 26 27  1  0  0  0  0
 26 28  1  0  0  0  0
 28 29  1  0  0  0  0
 28 30  2  0  0  0  0
 30 31  1  0  0  0  0
 30 32  1  0  0  0  0
 32 33  1  0  0  0  0
 36 37  1  0  0  0  0
 36 83  2  0  0  0  0
 37 38  1  0  0  0  0
 38 39  1  0  0  0  0
 38 59  1  1  0  0  0
 39 40  1  1  0  0  0
 39 41  1  0  0  0  0
 41 42  1  0  0  0  0
 42 43  1  0  0  0  0
 42 49  1  0  0  0  0
 42 55  1  0  0  0  0
 43 48  2  0  0  0  0
 43 44  1  0  0  0  0
 44 45  2  0  0  0  0
 45 46  1  0  0  0  0
 46 47  2  0  0  0  0
 47 48  1  0  0  0  0
 49 54  2  0  0  0  0
 49 50  1  0  0  0  0
 50 51  2  0  0  0  0
 51 52  1  0  0  0  0
 52 53  2  0  0  0  0
 53 54  1  0  0  0  0
 55 56  1  0  0  0  0
 55 57  1  0  0  0  0
 55 58  1  0  0  0  0
 59 60  1  0  0  0  0
 60 61  1  0  0  0  0
 60 71  1  0  0  0  0
 60 77  1  0  0  0  0
 61 70  2  0  0  0  0
 61 62  1  0  0  0  0
 62 63  2  0  0  0  0
 63 64  1  0  0  0  0
 63 66  1  0  0  0  0
 64 65  1  0  0  0  0
 66 67  2  0  0  0  0
 67 68  1  0  0  0  0
 67 70  1  0  0  0  0
 68 69  1  0  0  0  0
 71 76  2  0  0  0  0
 71 72  1  0  0  0  0
 72 73  2  0  0  0  0
 73 74  1  0  0  0  0
 74 75  2  0  0  0  0
 75 76  1  0  0  0  0
 77 82  2  0  0  0  0
 77 78  1  0  0  0  0
 78 79  2  0  0  0  0
 79 80  1  0  0  0  0
 80 81  2  0  0  0  0
 81 82  1  0  0  0  0
M  END
> <NMREDATA_VERSION>
1.1

> <NMREDATA_LEVEL>
0

> <NMREDATA_SOLVENT>
CDCl3

> <NMREDATA_FORMULA>
C68H73F5N2O6PSi2

> <NMREDATA_SMILES>
COc1cc(OC)cc(c1)P(c1ccccc1)(c1ccccc1)C[C@H]([C@H](O[Si](C(C)(C)C)(c1ccccc1)c1ccccc1)C)NC(=O)[C@@H](N(C(=O)c1c(F)c(F)c(c(c1F)F)F)C)[C@@H](O[Si](C(C)(C)C)(c1ccccc1)c1ccccc1)C

> <NMREDATA_ASSIGNMENT>
P60, 24.53, 60

> <NMREDATA_1D_31P>
Larmor=162
24.53, L=P60

$$$$
