
 OpenBabel06112616432D

 28 30  0  0  1  0  0  0  0  0999 V2000
    5.3226   -5.1582    0.0000 O   0  0  0  0  0  0  0  0  0  0  0  0
    4.8387   -4.3201    0.0000 C   0  0  0  0  0  0  0  0  0  0  0  0
    3.8710   -4.3201    0.0000 C   0  0  0  0  0  0  0  0  0  0  0  0
    3.3871   -3.4820    0.0000 C   0  0  0  0  0  0  0  0  0  0  0  0
    3.8710   -2.6439    0.0000 C   0  0  0  0  0  0  0  0  0  0  0  0
    3.3871   -1.8058    0.0000 C   0  0  0  0  0  0  0  0  0  0  0  0
    2.4194   -1.8058    0.0000 C   0  0  0  0  0  0  0  0  0  0  0  0
    1.9355   -0.9677    0.0000 C   0  0  3  0  0  0  0  0  0  0  0  0
    2.4194   -0.1297    0.0000 C   0  0  0  0  0  0  0  0  0  0  0  0
    0.0000   -0.9677    0.0000 P   0  0  0  0  0  0  0  0  0  0  0  0
    0.0000   -1.9355    0.0000 O   0  0  0  0  0  0  0  0  0  0  0  0
   -0.9677   -0.9677    0.0000 C   0  0  0  0  0  0  0  0  0  0  0  0
   -1.4516   -0.1297    0.0000 C   0  0  0  0  0  0  0  0  0  0  0  0
   -2.4194   -0.1297    0.0000 C   0  0  0  0  0  0  0  0  0  0  0  0
   -2.9032   -0.9677    0.0000 C   0  0  0  0  0  0  0  0  0  0  0  0
   -2.4194   -1.8058    0.0000 C   0  0  0  0  0  0  0  0  0  0  0  0
   -1.4516   -1.8058    0.0000 C   0  0  0  0  0  0  0  0  0  0  0  0
   -0.9677   -2.6439    0.0000 C   0  0  0  0  0  0  0  0  0  0  0  0
    0.0000    0.0000    0.0000 C   0  0  0  0  0  0  0  0  0  0  0  0
   -0.8381    0.4839    0.0000 C   0  0  0  0  0  0  0  0  0  0  0  0
   -0.8381    1.4516    0.0000 C   0  0  0  0  0  0  0  0  0  0  0  0
    0.0000    1.9355    0.0000 C   0  0  0  0  0  0  0  0  0  0  0  0
    0.8381    1.4516    0.0000 C   0  0  0  0  0  0  0  0  0  0  0  0
    0.8381    0.4839    0.0000 C   0  0  0  0  0  0  0  0  0  0  0  0
    1.6762    0.0000    0.0000 C   0  0  0  0  0  0  0  0  0  0  0  0
    4.8387   -2.6439    0.0000 C   0  0  0  0  0  0  0  0  0  0  0  0
    5.3226   -3.4820    0.0000 C   0  0  0  0  0  0  0  0  0  0  0  0
    4.8387   -5.9963    0.0000 C   0  0  0  0  0  0  0  0  0  0  0  0
  1  2  1  0  0  0  0
  1 28  1  0  0  0  0
  2 27  2  0  0  0  0
  2  3  1  0  0  0  0
  3  4  2  0  0  0  0
  4  5  1  0  0  0  0
  5  6  1  0  0  0  0
  5 26  2  0  0  0  0
  6  7  2  0  0  0  0
  7  8  1  0  0  0  0
  8  9  1  0  0  0  0
  8 10  1  0  0  0  0
 10 11  2  0  0  0  0
 10 12  1  0  0  0  0
 10 19  1  0  0  0  0
 12 17  2  0  0  0  0
 12 13  1  0  0  0  0
 13 14  2  0  0  0  0
 14 15  1  0  0  0  0
 15 16  2  0  0  0  0
 16 17  1  0  0  0  0
 17 18  1  0  0  0  0
 19 24  2  0  0  0  0
 19 20  1  0  0  0  0
 20 21  2  0  0  0  0
 21 22  1  0  0  0  0
 22 23  2  0  0  0  0
 23 24  1  0  0  0  0
 24 25  1  0  0  0  0
 26 27  1  0  0  0  0
M  END
> <NMREDATA_VERSION>
1.1

> <NMREDATA_LEVEL>
0

> <NMREDATA_SOLVENT>
CDCl3

> <NMREDATA_FORMULA>
C25H27O2P

> <NMREDATA_SMILES>
COc1ccc(cc1)/C=C/C(P(=O)(c1ccccc1C)c1ccccc1C)C

> <NMREDATA_ASSIGNMENT>
P10, 37.41, 10

> <NMREDATA_1D_31P>
Larmor=162
37.41, L=P10

$$$$
