
 OpenBabel06112616462D

 70 77  0  0  1  0  0  0  0  0999 V2000
   -1.0000   -1.0000    0.0000 O   0  0  0  0  0  0  0  0  0  0  0  0
   -1.5000   -1.8660    0.0000 C   0  0  0  0  0  0  0  0  0  0  0  0
   -1.0000   -2.7321    0.0000 C   0  0  1  0  0  0  0  0  0  0  0  0
    0.0000   -2.7321    0.0000 O   0  0  0  0  0  0  0  0  0  0  0  0
    0.5000   -3.5981    0.0000 C   0  0  2  0  0  0  0  0  0  0  0  0
    1.5000   -3.5981    0.0000 O   0  0  0  0  0  0  0  0  0  0  0  0
    2.0000   -2.7321    0.0000 C   0  0  0  0  0  0  0  0  0  0  0  0
    3.0000   -2.7321    0.0000 C   0  0  1  0  0  0  0  0  0  0  0  0
    3.5000   -3.5981    0.0000 O   0  0  0  0  0  0  0  0  0  0  0  0
    4.5000   -3.5981    0.0000 C   0  0  2  0  0  0  0  0  0  0  0  0
    5.0000   -4.4641    0.0000 O   0  0  0  0  0  0  0  0  0  0  0  0
    4.5000   -5.3301    0.0000 C   0  0  0  0  0  0  0  0  0  0  0  0
    5.0000   -2.7321    0.0000 C   0  0  2  0  0  0  0  0  0  0  0  0
    6.0000   -2.7321    0.0000 O   0  0  0  0  0  0  0  0  0  0  0  0
    6.5000   -3.5981    0.0000 C   0  0  0  0  0  0  0  0  0  0  0  0
    7.5000   -3.5981    0.0000 C   0  0  0  0  0  0  0  0  0  0  0  0
    8.0000   -4.4641    0.0000 C   0  0  0  0  0  0  0  0  0  0  0  0
    9.0000   -4.4641    0.0000 C   0  0  0  0  0  0  0  0  0  0  0  0
    9.5000   -3.5981    0.0000 C   0  0  0  0  0  0  0  0  0  0  0  0
    9.0000   -2.7321    0.0000 C   0  0  0  0  0  0  0  0  0  0  0  0
    8.0000   -2.7321    0.0000 C   0  0  0  0  0  0  0  0  0  0  0  0
    4.5000   -1.8660    0.0000 C   0  0  1  0  0  0  0  0  0  0  0  0
    5.0000   -1.0000    0.0000 O   0  0  0  0  0  0  0  0  0  0  0  0
    6.0000   -1.0000    0.0000 C   0  0  0  0  0  0  0  0  0  0  0  0
    6.5000   -0.1340    0.0000 C   0  0  0  0  0  0  0  0  0  0  0  0
    7.5000   -0.1340    0.0000 C   0  0  0  0  0  0  0  0  0  0  0  0
    8.0000    0.7321    0.0000 C   0  0  0  0  0  0  0  0  0  0  0  0
    7.5000    1.5981    0.0000 C   0  0  0  0  0  0  0  0  0  0  0  0
    6.5000    1.5981    0.0000 C   0  0  0  0  0  0  0  0  0  0  0  0
    6.0000    0.7321    0.0000 C   0  0  0  0  0  0  0  0  0  0  0  0
    3.5000   -1.8660    0.0000 C   0  0  2  0  0  0  0  0  0  0  0  0
    3.0000   -1.0000    0.0000 O   0  0  0  0  0  0  0  0  0  0  0  0
    3.5000   -0.1340    0.0000 C   0  0  0  0  0  0  0  0  0  0  0  0
    3.0000    0.7321    0.0000 C   0  0  0  0  0  0  0  0  0  0  0  0
    2.0000    0.7321    0.0000 C   0  0  0  0  0  0  0  0  0  0  0  0
    1.5000    1.5981    0.0000 C   0  0  0  0  0  0  0  0  0  0  0  0
    2.0000    2.4641    0.0000 C   0  0  0  0  0  0  0  0  0  0  0  0
    3.0000    2.4641    0.0000 C   0  0  0  0  0  0  0  0  0  0  0  0
    3.5000    1.5981    0.0000 C   0  0  0  0  0  0  0  0  0  0  0  0
    0.0000   -4.4641    0.0000 C   0  0  2  0  0  0  0  0  0  0  0  0
    0.5000   -5.3301    0.0000 O   0  0  0  0  0  0  0  0  0  0  0  0
    1.5000   -5.3301    0.0000 C   0  0  0  0  0  0  0  0  0  0  0  0
    2.0000   -6.1962    0.0000 C   0  0  0  0  0  0  0  0  0  0  0  0
    1.5000   -7.0622    0.0000 C   0  0  0  0  0  0  0  0  0  0  0  0
    2.0000   -7.9282    0.0000 C   0  0  0  0  0  0  0  0  0  0  0  0
    3.0000   -7.9282    0.0000 C   0  0  0  0  0  0  0  0  0  0  0  0
    3.5000   -7.0622    0.0000 C   0  0  0  0  0  0  0  0  0  0  0  0
    3.0000   -6.1962    0.0000 C   0  0  0  0  0  0  0  0  0  0  0  0
   -1.0000   -4.4641    0.0000 C   0  0  1  0  0  0  0  0  0  0  0  0
   -1.5000   -5.3301    0.0000 O   0  0  0  0  0  0  0  0  0  0  0  0
   -1.0000   -6.1962    0.0000 C   0  0  0  0  0  0  0  0  0  0  0  0
   -1.5000   -7.0622    0.0000 C   0  0  0  0  0  0  0  0  0  0  0  0
   -1.0000   -7.9282    0.0000 C   0  0  0  0  0  0  0  0  0  0  0  0
   -1.5000   -8.7942    0.0000 C   0  0  0  0  0  0  0  0  0  0  0  0
   -2.5000   -8.7942    0.0000 C   0  0  0  0  0  0  0  0  0  0  0  0
   -3.0000   -7.9282    0.0000 C   0  0  0  0  0  0  0  0  0  0  0  0
   -2.5000   -7.0622    0.0000 C   0  0  0  0  0  0  0  0  0  0  0  0
   -1.5000   -3.5981    0.0000 C   0  0  2  0  0  0  0  0  0  0  0  0
   -2.5000   -3.5981    0.0000 O   0  0  0  0  0  0  0  0  0  0  0  0
   -3.0000   -2.7321    0.0000 C   0  0  0  0  0  0  0  0  0  0  0  0
   -4.0000   -2.7321    0.0000 C   0  0  0  0  0  0  0  0  0  0  0  0
   -4.5000   -1.8660    0.0000 C   0  0  0  0  0  0  0  0  0  0  0  0
   -5.5000   -1.8660    0.0000 C   0  0  0  0  0  0  0  0  0  0  0  0
   -6.0000   -2.7321    0.0000 C   0  0  0  0  0  0  0  0  0  0  0  0
   -5.5000   -3.5981    0.0000 C   0  0  0  0  0  0  0  0  0  0  0  0
   -4.5000   -3.5981    0.0000 C   0  0  0  0  0  0  0  0  0  0  0  0
    0.0000   -1.0000    0.0000 P   0  0  0  0  0  0  0  0  0  0  0  0
    0.0000   -2.0000    0.0000 O   0  0  0  0  0  0  0  0  0  0  0  0
    1.0000   -1.0000    0.0000 O   0  0  0  0  0  0  0  0  0  0  0  0
    0.0000    0.0000    0.0000 O   0  0  0  0  0  0  0  0  0  0  0  0
  1  2  1  0  0  0  0
  1 67  1  0  0  0  0
  3  2  1  1  0  0  0
  3  4  1  0  0  0  0
  3 58  1  0  0  0  0
  4  5  1  0  0  0  0
  5  6  1  6  0  0  0
  5 40  1  0  0  0  0
  6  7  1  0  0  0  0
  8  7  1  6  0  0  0
  8  9  1  0  0  0  0
  8 31  1  0  0  0  0
  9 10  1  0  0  0  0
 10 11  1  1  0  0  0
 10 13  1  0  0  0  0
 11 12  1  0  0  0  0
 13 14  1  1  0  0  0
 13 22  1  0  0  0  0
 14 15  1  0  0  0  0
 15 16  1  0  0  0  0
 16 21  2  0  0  0  0
 16 17  1  0  0  0  0
 17 18  2  0  0  0  0
 18 19  1  0  0  0  0
 19 20  2  0  0  0  0
 20 21  1  0  0  0  0
 22 23  1  6  0  0  0
 22 31  1  0  0  0  0
 23 24  1  0  0  0  0
 24 25  1  0  0  0  0
 25 30  2  0  0  0  0
 25 26  1  0  0  0  0
 26 27  2  0  0  0  0
 27 28  1  0  0  0  0
 28 29  2  0  0  0  0
 29 30  1  0  0  0  0
 31 32  1  1  0  0  0
 32 33  1  0  0  0  0
 33 34  1  0  0  0  0
 34 39  2  0  0  0  0
 34 35  1  0  0  0  0
 35 36  2  0  0  0  0
 36 37  1  0  0  0  0
 37 38  2  0  0  0  0
 38 39  1  0  0  0  0
 40 41  1  6  0  0  0
 40 49  1  0  0  0  0
 41 42  1  0  0  0  0
 42 43  1  0  0  0  0
 43 48  2  0  0  0  0
 43 44  1  0  0  0  0
 44 45  2  0  0  0  0
 45 46  1  0  0  0  0
 46 47  2  0  0  0  0
 47 48  1  0  0  0  0
 49 50  1  1  0  0  0
 49 58  1  0  0  0  0
 50 51  1  0  0  0  0
 51 52  1  0  0  0  0
 52 57  2  0  0  0  0
 52 53  1  0  0  0  0
 53 54  2  0  0  0  0
 54 55  1  0  0  0  0
 55 56  2  0  0  0  0
 56 57  1  0  0  0  0
 58 59  1  6  0  0  0
 59 60  1  0  0  0  0
 60 61  1  0  0  0  0
 61 66  2  0  0  0  0
 61 62  1  0  0  0  0
 62 63  2  0  0  0  0
 63 64  1  0  0  0  0
 64 65  2  0  0  0  0
 65 66  1  0  0  0  0
 67 68  2  0  0  0  0
 67 69  1  0  0  0  0
 67 70  1  0  0  0  0
M  END
> <NMREDATA_VERSION>
1.1

> <NMREDATA_LEVEL>
0

> <NMREDATA_SOLVENT>
CD3CN

> <NMREDATA_FORMULA>
C55H61O14P

> <NMREDATA_SMILES>
CO[C@H]1O[C@H](CO[C@H]2O[C@H](COP(=O)(O)O)[C@H]([C@@H]([C@H]2OCc2ccccc2)OCc2ccccc2)OCc2ccccc2)[C@H]([C@@H]([C@H]1OCc1ccccc1)OCc1ccccc1)OCc1ccccc1

> <NMREDATA_ASSIGNMENT>
P67, 0.90, 67

> <NMREDATA_1D_31P>
Larmor=162
0.90, L=P67

$$$$
