
 OpenBabel06112616492D

 32 36  0  0  1  0  0  0  0  0999 V2000
   -1.0000   -1.0000    0.0000 O   0  0  0  0  0  0  0  0  0  0  0  0
   -1.5000   -0.1340    0.0000 C   0  0  0  0  0  0  0  0  0  0  0  0
    0.0000   -1.0000    0.0000 P   0  0  2  0  0  0  0  0  0  0  0  0
    0.0000   -2.0000    0.0000 O   0  0  0  0  0  0  0  0  0  0  0  0
    1.0000   -1.0000    0.0000 C   0  0  0  0  0  0  0  0  0  0  0  0
    1.5000   -1.8660    0.0000 C   0  0  0  0  0  0  0  0  0  0  0  0
    1.0000   -2.7321    0.0000 C   0  0  0  0  0  0  0  0  0  0  0  0
    1.5000   -3.5981    0.0000 C   0  0  0  0  0  0  0  0  0  0  0  0
    2.5000   -3.5981    0.0000 C   0  0  0  0  0  0  0  0  0  0  0  0
    3.0000   -2.7321    0.0000 C   0  0  0  0  0  0  0  0  0  0  0  0
    2.5000   -1.8660    0.0000 C   0  0  0  0  0  0  0  0  0  0  0  0
    3.0000   -1.0000    0.0000 C   0  0  2  0  0  0  0  0  0  0  0  0
    2.4367   -0.1738    0.0000 N   0  0  0  0  0  0  0  0  0  0  0  0
    2.7314    0.7818    0.0000 C   0  0  0  0  0  0  0  0  0  0  0  0
    1.9496    1.4053    0.0000 C   0  0  0  0  0  0  0  0  0  0  0  0
    2.0986    2.3941    0.0000 C   0  0  0  0  0  0  0  0  0  0  0  0
    3.0295    2.7595    0.0000 C   0  0  0  0  0  0  0  0  0  0  0  0
    3.8114    2.1360    0.0000 C   0  0  0  0  0  0  0  0  0  0  0  0
    3.6623    1.1472    0.0000 C   0  0  0  0  0  0  0  0  0  0  0  0
    4.5283    0.6472    0.0000 O   0  0  0  0  0  0  0  0  0  0  0  0
    4.6774   -0.3417    0.0000 C   0  0  0  0  0  0  0  0  0  0  0  0
    5.6523   -0.5642    0.0000 C   0  0  0  0  0  0  0  0  0  0  0  0
    5.9471   -1.5198    0.0000 C   0  0  0  0  0  0  0  0  0  0  0  0
    5.2669   -2.2528    0.0000 C   0  0  0  0  0  0  0  0  0  0  0  0
    4.2920   -2.0303    0.0000 C   0  0  0  0  0  0  0  0  0  0  0  0
    3.9972   -1.0747    0.0000 C   0  0  0  0  0  0  0  0  0  0  0  0
    0.0000    0.0000    0.0000 C   0  0  0  0  0  0  0  0  0  0  0  0
   -0.8660    0.5000    0.0000 C   0  0  0  0  0  0  0  0  0  0  0  0
   -0.8660    1.5000    0.0000 C   0  0  0  0  0  0  0  0  0  0  0  0
    0.0000    2.0000    0.0000 C   0  0  0  0  0  0  0  0  0  0  0  0
    0.8660    1.5000    0.0000 C   0  0  0  0  0  0  0  0  0  0  0  0
    0.8660    0.5000    0.0000 C   0  0  0  0  0  0  0  0  0  0  0  0
  1  2  1  0  0  0  0
  1  3  1  0  0  0  0
  3  4  2  6  0  0  0
  3  5  1  0  0  0  0
  3 27  1  0  0  0  0
  5  6  1  0  0  0  0
  6 11  2  0  0  0  0
  6  7  1  0  0  0  0
  7  8  2  0  0  0  0
  8  9  1  0  0  0  0
  9 10  2  0  0  0  0
 10 11  1  0  0  0  0
 12 11  1  6  0  0  0
 12 13  1  0  0  0  0
 12 26  1  0  0  0  0
 13 14  1  0  0  0  0
 14 19  2  0  0  0  0
 14 15  1  0  0  0  0
 15 16  2  0  0  0  0
 16 17  1  0  0  0  0
 17 18  2  0  0  0  0
 18 19  1  0  0  0  0
 19 20  1  0  0  0  0
 20 21  1  0  0  0  0
 21 26  2  0  0  0  0
 21 22  1  0  0  0  0
 22 23  2  0  0  0  0
 23 24  1  0  0  0  0
 24 25  2  0  0  0  0
 25 26  1  0  0  0  0
 27 32  2  0  0  0  0
 27 28  1  0  0  0  0
 28 29  2  0  0  0  0
 29 30  1  0  0  0  0
 30 31  2  0  0  0  0
 31 32  1  0  0  0  0
M  END
> <NMREDATA_VERSION>
1.1

> <NMREDATA_LEVEL>
0

> <NMREDATA_SOLVENT>
CDCl3

> <NMREDATA_FORMULA>
C27H24NO3P

> <NMREDATA_SMILES>
CO[P@@](=O)(c1ccccc1)Cc1ccccc1[C@@H]1Nc2ccccc2Oc2c1cccc2

> <NMREDATA_ASSIGNMENT>
P3, 42.40, 3

> <NMREDATA_1D_31P>
Larmor=162
42.40, L=P3

$$$$
