
 OpenBabel06112616432D

 30 33  0  0  1  0  0  0  0  0999 V2000
    1.0000   -1.0000    0.0000 O    0  0  0  0  0  0  0  0  0  0  0  0
    1.0000    0.0000    0.0000 P    0  0  0  0  0  0  0  0  0  0  0  0
    2.0000    0.0000    0.0000 C    0  0  0  0  0  0  0  0  0  0  0  0
    2.5000   -0.8660    0.0000 C    0  0  3  0  0  0  0  0  0  0  0  0
    3.5000   -0.8660    0.0000 C    0  0  0  0  0  0  0  0  0  0  0  0
    4.0000   -1.7321    0.0000 C    0  0  0  0  0  0  0  0  0  0  0  0
    5.0000   -1.7321    0.0000 C    0  0  0  0  0  0  0  0  0  0  0  0
    5.5000   -0.8660    0.0000 C    0  0  0  0  0  0  0  0  0  0  0  0
    5.0000    0.0000    0.0000 C    0  0  0  0  0  0  0  0  0  0  0  0
    4.0000    0.0000    0.0000 C    0  0  0  0  0  0  0  0  0  0  0  0
    2.0000   -1.7321    0.0000 C    0  0  0  0  0  0  0  0  0  0  0  0
    1.0000   -1.7321    0.0000 C    0  0  0  0  0  0  0  0  0  0  0  0
    0.5000   -2.5981    0.0000 C    0  0  0  0  0  0  0  0  0  0  0  0
    1.0000   -3.4641    0.0000 N    0  0  0  0  0  0  0  0  0  0  0  0
    2.0000   -3.4641    0.0000 C    0  0  0  0  0  0  0  0  0  0  0  0
    2.5000   -2.5981    0.0000 C    0  0  0  0  0  0  0  0  0  0  0  0
    1.0000    1.0000    0.0000 C    0  0  0  0  0  0  0  0  0  0  0  0
    0.1340    1.5000    0.0000 C    0  0  0  0  0  0  0  0  0  0  0  0
    0.1340    2.5000    0.0000 C    0  0  0  0  0  0  0  0  0  0  0  0
    1.0000    3.0000    0.0000 C    0  0  0  0  0  0  0  0  0  0  0  0
    1.0000    4.0000    0.0000 Cl   0  0  0  0  0  0  0  0  0  0  0  0
    1.8660    2.5000    0.0000 C    0  0  0  0  0  0  0  0  0  0  0  0
    1.8660    1.5000    0.0000 C    0  0  0  0  0  0  0  0  0  0  0  0
    0.0000    0.0000    0.0000 C    0  0  0  0  0  0  0  0  0  0  0  0
   -0.5000   -0.8660    0.0000 C    0  0  0  0  0  0  0  0  0  0  0  0
   -1.5000   -0.8660    0.0000 C    0  0  0  0  0  0  0  0  0  0  0  0
   -2.0000    0.0000    0.0000 C    0  0  0  0  0  0  0  0  0  0  0  0
   -3.0000    0.0000    0.0000 Cl   0  0  0  0  0  0  0  0  0  0  0  0
   -1.5000    0.8660    0.0000 C    0  0  0  0  0  0  0  0  0  0  0  0
   -0.5000    0.8660    0.0000 C    0  0  0  0  0  0  0  0  0  0  0  0
  1  2  2  0  0  0  0
  2  3  1  0  0  0  0
  2 17  1  0  0  0  0
  2 24  1  0  0  0  0
  3  4  1  0  0  0  0
  4  5  1  0  0  0  0
  4 11  1  0  0  0  0
  5 10  2  0  0  0  0
  5  6  1  0  0  0  0
  6  7  2  0  0  0  0
  7  8  1  0  0  0  0
  8  9  2  0  0  0  0
  9 10  1  0  0  0  0
 11 16  2  0  0  0  0
 11 12  1  0  0  0  0
 12 13  2  0  0  0  0
 13 14  1  0  0  0  0
 14 15  2  0  0  0  0
 15 16  1  0  0  0  0
 17 23  2  0  0  0  0
 17 18  1  0  0  0  0
 18 19  2  0  0  0  0
 19 20  1  0  0  0  0
 20 21  1  0  0  0  0
 20 22  2  0  0  0  0
 22 23  1  0  0  0  0
 24 30  2  0  0  0  0
 24 25  1  0  0  0  0
 25 26  2  0  0  0  0
 26 27  1  0  0  0  0
 27 28  1  0  0  0  0
 27 29  2  0  0  0  0
 29 30  1  0  0  0  0
M  END
> <NMREDATA_VERSION>
1.1

> <NMREDATA_LEVEL>
0

> <NMREDATA_SOLVENT>
CDCl3

> <NMREDATA_FORMULA>
C25H20Cl2NOP

> <NMREDATA_SMILES>
Clc1ccc(cc1)P(=O)(c1ccc(cc1)Cl)CC(c1ccncc1)c1ccccc1

> <NMREDATA_ASSIGNMENT>
P2, 28.08, 2

> <NMREDATA_1D_31P>
Larmor=243
28.08, L=P2

$$$$
