
 OpenBabel06112616482D

 33 36  0  0  1  0  0  0  0  0999 V2000
    0.1304    3.4054    0.0000 C   0  0  0  0  0  0  0  0  0  0  0  0
   -0.7123    2.9189    0.0000 C   0  0  0  0  0  0  0  0  0  0  0  0
   -1.5549    3.4054    0.0000 C   0  0  0  0  0  0  0  0  0  0  0  0
   -0.7123    1.9459    0.0000 C   0  0  0  0  0  0  0  0  0  0  0  0
   -1.5549    1.4595    0.0000 O   0  0  0  0  0  0  0  0  0  0  0  0
    0.9730    0.9730    0.0000 C   0  0  3  0  0  0  0  0  0  0  0  0
    1.8156    1.4595    0.0000 C   0  0  3  0  0  0  0  0  0  0  0  0
    1.8156    2.4324    0.0000 O   0  0  0  0  0  0  0  0  0  0  0  0
    2.6582    0.9730    0.0000 C   0  0  0  0  0  0  0  0  0  0  0  0
    2.6582    0.0000    0.0000 C   0  0  0  0  0  0  0  0  0  0  0  0
    3.5008   -0.4865    0.0000 C   0  0  0  0  0  0  0  0  0  0  0  0
    4.3435    0.0000    0.0000 C   0  0  0  0  0  0  0  0  0  0  0  0
    5.1861   -0.4865    0.0000 C   0  0  0  0  0  0  0  0  0  0  0  0
    6.0287    0.0000    0.0000 C   0  0  0  0  0  0  0  0  0  0  0  0
    6.0287    0.9730    0.0000 C   0  0  0  0  0  0  0  0  0  0  0  0
    5.1861    1.4595    0.0000 C   0  0  0  0  0  0  0  0  0  0  0  0
    4.3435    0.9730    0.0000 C   0  0  0  0  0  0  0  0  0  0  0  0
    3.5008    1.4595    0.0000 C   0  0  0  0  0  0  0  0  0  0  0  0
    0.9730    0.0000    0.0000 P   0  0  3  0  0  0  0  0  0  0  0  0
    1.9459    0.0000    0.0000 O   0  0  0  0  0  0  0  0  0  0  0  0
    0.9730   -0.9730    0.0000 O   0  0  0  0  0  0  0  0  0  0  0  0
    1.8156   -1.4595    0.0000 C   0  0  0  0  0  0  0  0  0  0  0  0
    2.6582   -0.9730    0.0000 C   0  0  0  0  0  0  0  0  0  0  0  0
    3.5008   -1.4595    0.0000 C   0  0  0  0  0  0  0  0  0  0  0  0
    3.5008   -2.4324    0.0000 C   0  0  0  0  0  0  0  0  0  0  0  0
    2.6582   -2.9189    0.0000 C   0  0  0  0  0  0  0  0  0  0  0  0
    1.8156   -2.4324    0.0000 C   0  0  0  0  0  0  0  0  0  0  0  0
    0.0000    0.0000    0.0000 C   0  0  0  0  0  0  0  0  0  0  0  0
   -0.4865    0.8426    0.0000 C   0  0  0  0  0  0  0  0  0  0  0  0
   -1.4595    0.8426    0.0000 C   0  0  0  0  0  0  0  0  0  0  0  0
   -1.9459    0.0000    0.0000 C   0  0  0  0  0  0  0  0  0  0  0  0
   -1.4595   -0.8426    0.0000 C   0  0  0  0  0  0  0  0  0  0  0  0
   -0.4865   -0.8426    0.0000 C   0  0  0  0  0  0  0  0  0  0  0  0
  1  2  1  0  0  0  0
  2  3  1  0  0  0  0
  2  4  1  0  0  0  0
  4  5  2  0  0  0  0
  4  6  1  0  0  0  0
  6  7  1  0  0  0  0
  6 19  1  0  0  0  0
  7  8  1  0  0  0  0
  7  9  1  0  0  0  0
  9 18  2  0  0  0  0
  9 10  1  0  0  0  0
 10 11  2  0  0  0  0
 11 12  1  0  0  0  0
 12 17  2  0  0  0  0
 12 13  1  0  0  0  0
 13 14  2  0  0  0  0
 14 15  1  0  0  0  0
 15 16  2  0  0  0  0
 16 17  1  0  0  0  0
 17 18  1  0  0  0  0
 19 20  2  0  0  0  0
 19 21  1  0  0  0  0
 19 28  1  0  0  0  0
 21 22  1  0  0  0  0
 22 27  2  0  0  0  0
 22 23  1  0  0  0  0
 23 24  2  0  0  0  0
 24 25  1  0  0  0  0
 25 26  2  0  0  0  0
 26 27  1  0  0  0  0
 28 33  2  0  0  0  0
 28 29  1  0  0  0  0
 29 30  2  0  0  0  0
 30 31  1  0  0  0  0
 31 32  2  0  0  0  0
 32 33  1  0  0  0  0
M  END
> <NMREDATA_VERSION>
1.1

> <NMREDATA_LEVEL>
0

> <NMREDATA_SOLVENT>
CDCl3

> <NMREDATA_FORMULA>
C28H27O4P

> <NMREDATA_SMILES>
CC(C(=O)C(P(=O)(c1ccccc1)Oc1ccccc1)C(c1ccc2c(c1)cccc2)O)C

> <NMREDATA_ASSIGNMENT>
P19, 34.10, 19

> <NMREDATA_1D_31P>
Larmor=202
34.10, L=P19

$$$$
