
 OpenBabel06112616482D

 35 39  0  0  0  0  0  0  0  0999 V2000
    2.9250   -2.6637    0.0000 C   0  0  0  0  0  0  0  0  0  0  0  0
    1.9500   -2.6637    0.0000 C   0  0  0  0  0  0  0  0  0  0  0  0
    1.4625   -1.8194    0.0000 C   0  0  0  0  0  0  0  0  0  0  0  0
    0.9750   -0.9750    0.0000 C   0  0  0  0  0  0  0  0  0  0  0  0
    1.9500    0.7137    0.0000 C   0  0  0  0  0  0  0  0  0  0  0  0
    1.4625    1.5581    0.0000 C   0  0  0  0  0  0  0  0  0  0  0  0
    1.9500    2.4025    0.0000 C   0  0  0  0  0  0  0  0  0  0  0  0
    2.9250    2.4025    0.0000 C   0  0  0  0  0  0  0  0  0  0  0  0
    3.4125    1.5581    0.0000 C   0  0  0  0  0  0  0  0  0  0  0  0
    2.9250    0.7137    0.0000 C   0  0  0  0  0  0  0  0  0  0  0  0
    0.0000   -0.9750    0.0000 P   0  0  0  0  0  0  0  0  0  0  0  0
    0.0000   -1.9500    0.0000 O   0  0  0  0  0  0  0  0  0  0  0  0
   -0.9750   -0.9750    0.0000 C   0  0  0  0  0  0  0  0  0  0  0  0
   -1.4625   -0.1306    0.0000 C   0  0  0  0  0  0  0  0  0  0  0  0
   -2.4375   -0.1306    0.0000 C   0  0  0  0  0  0  0  0  0  0  0  0
   -2.9250   -0.9750    0.0000 C   0  0  0  0  0  0  0  0  0  0  0  0
   -2.4375   -1.8194    0.0000 C   0  0  0  0  0  0  0  0  0  0  0  0
   -1.4625   -1.8194    0.0000 C   0  0  0  0  0  0  0  0  0  0  0  0
    0.0000    0.0000    0.0000 C   0  0  0  0  0  0  0  0  0  0  0  0
    0.8444    0.4875    0.0000 C   0  0  0  0  0  0  0  0  0  0  0  0
    0.8444    1.4625    0.0000 C   0  0  0  0  0  0  0  0  0  0  0  0
    0.0000    1.9500    0.0000 C   0  0  0  0  0  0  0  0  0  0  0  0
   -0.8444    1.4625    0.0000 C   0  0  0  0  0  0  0  0  0  0  0  0
   -0.8444    0.4875    0.0000 C   0  0  0  0  0  0  0  0  0  0  0  0
    1.4625   -3.5081    0.0000 C   0  0  0  0  0  0  0  0  0  0  0  0
    1.9500   -4.3525    0.0000 C   0  0  0  0  0  0  0  0  0  0  0  0
    1.4625   -5.1969    0.0000 C   0  0  0  0  0  0  0  0  0  0  0  0
    0.4875   -5.1969    0.0000 C   0  0  0  0  0  0  0  0  0  0  0  0
    0.0000   -4.3525    0.0000 C   0  0  0  0  0  0  0  0  0  0  0  0
    0.4875   -3.5081    0.0000 C   0  0  0  0  0  0  0  0  0  0  0  0
    3.4125   -1.8194    0.0000 C   0  0  0  0  0  0  0  0  0  0  0  0
    4.3875   -1.8194    0.0000 C   0  0  0  0  0  0  0  0  0  0  0  0
    4.8750   -2.6637    0.0000 C   0  0  0  0  0  0  0  0  0  0  0  0
    4.3875   -3.5081    0.0000 C   0  0  0  0  0  0  0  0  0  0  0  0
    3.4125   -3.5081    0.0000 C   0  0  0  0  0  0  0  0  0  0  0  0
  1 35  2  0  0  0  0
  1  2  1  0  0  0  0
  1 31  1  0  0  0  0
  2  3  2  0  0  0  0
  2 25  1  0  0  0  0
  3  4  2  0  0  0  0
  4  5  1  0  0  0  0
  4 11  1  0  0  0  0
  5 10  2  0  0  0  0
  5  6  1  0  0  0  0
  6  7  2  0  0  0  0
  7  8  1  0  0  0  0
  8  9  2  0  0  0  0
  9 10  1  0  0  0  0
 11 12  2  0  0  0  0
 11 13  1  0  0  0  0
 11 19  1  0  0  0  0
 13 18  2  0  0  0  0
 13 14  1  0  0  0  0
 14 15  2  0  0  0  0
 15 16  1  0  0  0  0
 16 17  2  0  0  0  0
 17 18  1  0  0  0  0
 19 24  2  0  0  0  0
 19 20  1  0  0  0  0
 20 21  2  0  0  0  0
 21 22  1  0  0  0  0
 22 23  2  0  0  0  0
 23 24  1  0  0  0  0
 25 30  1  0  0  0  0
 25 26  1  0  0  0  0
 26 27  1  0  0  0  0
 27 28  1  0  0  0  0
 28 29  1  0  0  0  0
 29 30  1  0  0  0  0
 31 32  2  0  0  0  0
 32 33  1  0  0  0  0
 33 34  2  0  0  0  0
 34 35  1  0  0  0  0
M  END
> <NMREDATA_VERSION>
1.1

> <NMREDATA_LEVEL>
0

> <NMREDATA_SOLVENT>
CDCl3

> <NMREDATA_FORMULA>
C33H31OP

> <NMREDATA_SMILES>
O=P(C(=C=C(c1ccccc1)C1CCCCC1)c1ccccc1)(c1ccccc1)c1ccccc1

> <NMREDATA_ASSIGNMENT>
P11, 30.70, 11

> <NMREDATA_1D_31P>
Larmor=161
30.70, L=P11

$$$$
