
 OpenBabel06112616482D

 41 44  0  0  1  0  0  0  0  0999 V2000
    6.0931   -0.9122    0.0000 O    0  0  0  0  0  0  0  0  0  0  0  0
    6.4862   -1.8318    0.0000 C    0  0  0  0  0  0  0  0  0  0  0  0
    5.8863   -2.6319    0.0000 C    0  0  0  0  0  0  0  0  0  0  0  0
    5.1003   -0.7928    0.0000 C    0  0  0  0  0  0  0  0  0  0  0  0
    4.7073    0.1267    0.0000 O    0  0  0  0  0  0  0  0  0  0  0  0
    4.5005   -1.5930    0.0000 C    0  0  0  0  0  0  0  0  0  0  0  0
    4.7952   -2.5486    0.0000 N    0  0  0  0  0  0  0  0  0  0  0  0
    3.9775   -3.1242    0.0000 O    0  0  0  0  0  0  0  0  0  0  0  0
    3.1774   -2.5243    0.0000 C    0  0  1  0  0  0  0  0  0  0  0  0
    3.0283   -3.5132    0.0000 C    0  0  0  0  0  0  0  0  0  0  0  0
    2.1623   -4.0132    0.0000 C    0  0  0  0  0  0  0  0  0  0  0  0
    1.2314   -3.6478    0.0000 C    0  0  0  0  0  0  0  0  0  0  0  0
    0.9367   -2.6923    0.0000 C    0  0  0  0  0  0  0  0  0  0  0  0
    1.5000   -1.8660    0.0000 C    0  0  0  0  0  0  0  0  0  0  0  0
    1.0000   -1.0000    0.0000 O    0  0  0  0  0  0  0  0  0  0  0  0
    0.0000   -1.0000    0.0000 P    0  0  0  0  0  0  0  0  0  0  0  0
    0.0000   -2.0000    0.0000 O    0  0  0  0  0  0  0  0  0  0  0  0
   -1.0000   -1.0000    0.0000 O    0  0  0  0  0  0  0  0  0  0  0  0
   -1.5000   -1.8660    0.0000 C    0  0  0  0  0  0  0  0  0  0  0  0
   -2.5000   -1.8660    0.0000 C    0  0  0  0  0  0  0  0  0  0  0  0
   -3.0000   -2.7321    0.0000 C    0  0  0  0  0  0  0  0  0  0  0  0
   -2.5000   -3.5981    0.0000 C    0  0  0  0  0  0  0  0  0  0  0  0
   -1.5000   -3.5981    0.0000 C    0  0  0  0  0  0  0  0  0  0  0  0
   -1.0000   -2.7321    0.0000 C    0  0  0  0  0  0  0  0  0  0  0  0
    0.0000    0.0000    0.0000 O    0  0  0  0  0  0  0  0  0  0  0  0
   -0.8660    0.5000    0.0000 C    0  0  0  0  0  0  0  0  0  0  0  0
   -1.7321    0.0000    0.0000 C    0  0  0  0  0  0  0  0  0  0  0  0
   -2.5981    0.5000    0.0000 C    0  0  0  0  0  0  0  0  0  0  0  0
   -2.5981    1.5000    0.0000 C    0  0  0  0  0  0  0  0  0  0  0  0
   -1.7321    2.0000    0.0000 C    0  0  0  0  0  0  0  0  0  0  0  0
   -0.8660    1.5000    0.0000 C    0  0  0  0  0  0  0  0  0  0  0  0
    2.4972   -1.7913    0.0000 O    0  0  0  0  0  0  0  0  0  0  0  0
    3.5006   -1.5780    0.0000 C    0  0  2  0  0  0  0  0  0  0  0  0
    2.9250   -0.7603    0.0000 O    0  0  0  0  0  0  0  0  0  0  0  0
    3.3453    0.1471    0.0000 Si   0  0  0  0  0  0  0  0  0  0  0  0
    4.2527   -0.2733    0.0000 C    0  0  0  0  0  0  0  0  0  0  0  0
    3.7657    1.0544    0.0000 C    0  0  0  0  0  0  0  0  0  0  0  0
    2.4380    0.5674    0.0000 C    0  0  0  0  0  0  0  0  0  0  0  0
    1.4420    0.4778    0.0000 C    0  0  0  0  0  0  0  0  0  0  0  0
    2.0176   -0.3399    0.0000 C    0  0  0  0  0  0  0  0  0  0  0  0
    2.3483    1.5634    0.0000 C    0  0  0  0  0  0  0  0  0  0  0  0
  1  2  1  0  0  0  0
  1  4  1  0  0  0  0
  2  3  1  0  0  0  0
  4  5  2  0  0  0  0
  4  6  1  0  0  0  0
  6 33  1  0  0  0  0
  6  7  2  0  0  0  0
  7  8  1  0  0  0  0
  8  9  1  0  0  0  0
  9 32  1  0  0  0  0
  9 10  1  6  0  0  0
  9 33  1  0  0  0  0
 10 11  1  0  0  0  0
 11 12  1  0  0  0  0
 12 13  1  0  0  0  0
 13 14  2  0  0  0  0
 14 15  1  0  0  0  0
 14 32  1  0  0  0  0
 15 16  1  0  0  0  0
 16 17  2  0  0  0  0
 16 18  1  0  0  0  0
 16 25  1  0  0  0  0
 18 19  1  0  0  0  0
 19 24  2  0  0  0  0
 19 20  1  0  0  0  0
 20 21  2  0  0  0  0
 21 22  1  0  0  0  0
 22 23  2  0  0  0  0
 23 24  1  0  0  0  0
 25 26  1  0  0  0  0
 26 31  2  0  0  0  0
 26 27  1  0  0  0  0
 27 28  2  0  0  0  0
 28 29  1  0  0  0  0
 29 30  2  0  0  0  0
 30 31  1  0  0  0  0
 33 34  1  6  0  0  0
 34 35  1  0  0  0  0
 35 36  1  0  0  0  0
 35 37  1  0  0  0  0
 35 38  1  0  0  0  0
 38 39  1  0  0  0  0
 38 40  1  0  0  0  0
 38 41  1  0  0  0  0
M  END
> <NMREDATA_VERSION>
1.1

> <NMREDATA_LEVEL>
0

> <NMREDATA_SOLVENT>
CDCl3

> <NMREDATA_FORMULA>
C29H38NO9PSi

> <NMREDATA_SMILES>
CCOC(=O)C1=NO[C@@]2([C@@H]1O[Si](C(C)(C)C)(C)C)CCCC=C(O2)OP(=O)(Oc1ccccc1)Oc1ccccc1

> <NMREDATA_ASSIGNMENT>
P16, -18.30, 16

> <NMREDATA_1D_31P>
Larmor=162
-18.30, L=P16

$$$$
