
 OpenBabel06112616422D

 25 26  0  0  0  0  0  0  0  0999 V2000
   -2.5000   -1.8660    0.0000 C   0  0  0  0  0  0  0  0  0  0  0  0
   -1.5000   -1.8660    0.0000 C   0  0  0  0  0  0  0  0  0  0  0  0
   -1.0000   -1.0000    0.0000 O   0  0  0  0  0  0  0  0  0  0  0  0
    0.0000   -1.0000    0.0000 P   0  0  0  0  0  0  0  0  0  0  0  0
    0.0000   -2.0000    0.0000 O   0  0  0  0  0  0  0  0  0  0  0  0
    1.0000   -1.0000    0.0000 O   0  0  0  0  0  0  0  0  0  0  0  0
    1.5000   -1.8660    0.0000 C   0  0  0  0  0  0  0  0  0  0  0  0
    2.5000   -1.8660    0.0000 C   0  0  0  0  0  0  0  0  0  0  0  0
    0.0000    0.0000    0.0000 C   0  0  0  0  0  0  0  0  0  0  0  0
   -0.8090    0.5878    0.0000 C   0  0  0  0  0  0  0  0  0  0  0  0
   -1.7601    0.2788    0.0000 C   0  0  0  0  0  0  0  0  0  0  0  0
   -1.9680   -0.6994    0.0000 C   0  0  0  0  0  0  0  0  0  0  0  0
   -2.9190   -1.0084    0.0000 C   0  0  0  0  0  0  0  0  0  0  0  0
   -3.6622   -0.3393    0.0000 C   0  0  0  0  0  0  0  0  0  0  0  0
   -3.4543    0.6389    0.0000 C   0  0  0  0  0  0  0  0  0  0  0  0
   -2.5032    0.9479    0.0000 C   0  0  0  0  0  0  0  0  0  0  0  0
   -0.5000    1.5388    0.0000 O   0  0  0  0  0  0  0  0  0  0  0  0
    0.5000    1.5388    0.0000 C   0  0  0  0  0  0  0  0  0  0  0  0
    1.0878    2.3479    0.0000 O   0  0  0  0  0  0  0  0  0  0  0  0
    2.0823    2.2433    0.0000 C   0  0  0  0  0  0  0  0  0  0  0  0
    0.8090    0.5878    0.0000 C   0  0  0  0  0  0  0  0  0  0  0  0
    1.7601    0.2788    0.0000 C   0  0  0  0  0  0  0  0  0  0  0  0
    2.7382    0.4867    0.0000 F   0  0  0  0  0  0  0  0  0  0  0  0
    2.0691    1.2298    0.0000 F   0  0  0  0  0  0  0  0  0  0  0  0
    1.9680   -0.6994    0.0000 F   0  0  0  0  0  0  0  0  0  0  0  0
  1  2  1  0  0  0  0
  2  3  1  0  0  0  0
  3  4  1  0  0  0  0
  4  5  2  0  0  0  0
  4  6  1  0  0  0  0
  4  9  1  0  0  0  0
  6  7  1  0  0  0  0
  7  8  1  0  0  0  0
  9 21  1  0  0  0  0
  9 10  2  0  0  0  0
 10 11  1  0  0  0  0
 10 17  1  0  0  0  0
 11 16  2  0  0  0  0
 11 12  1  0  0  0  0
 12 13  2  0  0  0  0
 13 14  1  0  0  0  0
 14 15  2  0  0  0  0
 15 16  1  0  0  0  0
 17 18  1  0  0  0  0
 18 19  1  0  0  0  0
 18 21  2  0  0  0  0
 19 20  1  0  0  0  0
 21 22  1  0  0  0  0
 22 23  1  0  0  0  0
 22 24  1  0  0  0  0
 22 25  1  0  0  0  0
M  END
> <NMREDATA_VERSION>
1.1

> <NMREDATA_LEVEL>
0

> <NMREDATA_SOLVENT>
CDCl3

> <NMREDATA_FORMULA>
C16H18F3O5P

> <NMREDATA_SMILES>
CCOP(=O)(c1c(oc(c1C(F)(F)F)OC)c1ccccc1)OCC

> <NMREDATA_ASSIGNMENT>
P4, 9.79, 4

> <NMREDATA_1D_31P>
Larmor=162
9.79, L=P4

$$$$
