
 OpenBabel06112616462D

 37 41  0  0  0  0  0  0  0  0999 V2000
    1.7321    0.0000    0.0000 C   0  0  0  0  0  0  0  0  0  0  0  0
    0.8660   -0.5000    0.0000 C   0  0  0  0  0  0  0  0  0  0  0  0
    0.8660   -1.5000    0.0000 C   0  0  0  0  0  0  0  0  0  0  0  0
    0.0000   -2.0000    0.0000 C   0  0  0  0  0  0  0  0  0  0  0  0
    0.0000   -3.0000    0.0000 C   0  0  0  0  0  0  0  0  0  0  0  0
   -0.8660   -1.5000    0.0000 C   0  0  0  0  0  0  0  0  0  0  0  0
   -0.8660   -0.5000    0.0000 C   0  0  0  0  0  0  0  0  0  0  0  0
   -1.7321    0.0000    0.0000 N   0  0  0  0  0  0  0  0  0  0  0  0
   -2.5981   -0.5000    0.0000 N   0  0  0  0  0  0  0  0  0  0  0  0
   -3.4641    0.0000    0.0000 C   0  0  0  0  0  0  0  0  0  0  0  0
   -3.4641    1.0000    0.0000 C   0  0  0  0  0  0  0  0  0  0  0  0
   -4.3301    1.5000    0.0000 C   0  0  0  0  0  0  0  0  0  0  0  0
   -4.3301    2.5000    0.0000 C   0  0  0  0  0  0  0  0  0  0  0  0
   -3.4641    3.0000    0.0000 C   0  0  0  0  0  0  0  0  0  0  0  0
   -2.5981    2.5000    0.0000 C   0  0  0  0  0  0  0  0  0  0  0  0
   -2.5981    1.5000    0.0000 C   0  0  0  0  0  0  0  0  0  0  0  0
   -4.3301   -0.5000    0.0000 P   0  0  3  0  0  0  0  0  0  0  0  0
   -4.4347   -1.4945    0.0000 C   0  0  0  0  0  0  0  0  0  0  0  0
   -3.6915   -2.1637    0.0000 C   0  0  0  0  0  0  0  0  0  0  0  0
   -2.7405   -1.8546    0.0000 C   0  0  0  0  0  0  0  0  0  0  0  0
   -1.9973   -2.5238    0.0000 C   0  0  0  0  0  0  0  0  0  0  0  0
   -2.2052   -3.5019    0.0000 C   0  0  0  0  0  0  0  0  0  0  0  0
   -3.1563   -3.8109    0.0000 C   0  0  0  0  0  0  0  0  0  0  0  0
   -3.8994   -3.1418    0.0000 C   0  0  0  0  0  0  0  0  0  0  0  0
   -5.4128   -1.7024    0.0000 N   0  0  0  0  0  0  0  0  0  0  0  0
   -5.9128   -0.8364    0.0000 N   0  0  0  0  0  0  0  0  0  0  0  0
   -6.9073   -0.7319    0.0000 C   0  0  0  0  0  0  0  0  0  0  0  0
   -7.4951   -1.5409    0.0000 C   0  0  0  0  0  0  0  0  0  0  0  0
   -8.4896   -1.4364    0.0000 C   0  0  0  0  0  0  0  0  0  0  0  0
   -9.0774   -2.2454    0.0000 C   0  0  0  0  0  0  0  0  0  0  0  0
   -8.8964   -0.5228    0.0000 C   0  0  0  0  0  0  0  0  0  0  0  0
   -8.3086    0.2862    0.0000 C   0  0  0  0  0  0  0  0  0  0  0  0
   -8.7153    1.1997    0.0000 C   0  0  0  0  0  0  0  0  0  0  0  0
   -7.3141    0.1817    0.0000 C   0  0  0  0  0  0  0  0  0  0  0  0
   -5.2437   -0.0933    0.0000 C   0  0  0  0  0  0  0  0  0  0  0  0
   -5.4516    0.8849    0.0000 O   0  0  0  0  0  0  0  0  0  0  0  0
    0.0000    0.0000    0.0000 C   0  0  0  0  0  0  0  0  0  0  0  0
  1  2  1  0  0  0  0
  2 37  2  0  0  0  0
  2  3  1  0  0  0  0
  3  4  2  0  0  0  0
  4  5  1  0  0  0  0
  4  6  1  0  0  0  0
  6  7  2  0  0  0  0
  7  8  1  0  0  0  0
  7 37  1  0  0  0  0
  8  9  1  0  0  0  0
  9 10  2  0  0  0  0
 10 11  1  0  0  0  0
 10 17  1  0  0  0  0
 11 16  2  0  0  0  0
 11 12  1  0  0  0  0
 12 13  2  0  0  0  0
 13 14  1  0  0  0  0
 14 15  2  0  0  0  0
 15 16  1  0  0  0  0
 17 35  1  0  0  0  0
 17 18  1  0  0  0  0
 18 19  1  0  0  0  0
 18 25  2  0  0  0  0
 19 24  2  0  0  0  0
 19 20  1  0  0  0  0
 20 21  2  0  0  0  0
 21 22  1  0  0  0  0
 22 23  2  0  0  0  0
 23 24  1  0  0  0  0
 25 26  1  0  0  0  0
 26 27  1  0  0  0  0
 26 35  1  0  0  0  0
 27 34  2  0  0  0  0
 27 28  1  0  0  0  0
 28 29  2  0  0  0  0
 29 30  1  0  0  0  0
 29 31  1  0  0  0  0
 31 32  2  0  0  0  0
 32 33  1  0  0  0  0
 32 34  1  0  0  0  0
 35 36  2  0  0  0  0
M  END
> <NMREDATA_VERSION>
1.1

> <NMREDATA_LEVEL>
0

> <NMREDATA_SOLVENT>
CDCl3

> <NMREDATA_FORMULA>
C31H29N4OP

> <NMREDATA_SMILES>
Cc1cc(N/N=C(/p2c(nn(c2=O)c2cc(C)cc(c2)C)c2ccccc2)\c2ccccc2)cc(c1)C

> <NMREDATA_ASSIGNMENT>
P17, -24.04, 17

> <NMREDATA_1D_31P>
Larmor=162
-24.04, L=P17

$$$$
