
 OpenBabel06112616472D

 44 49  0  0  0  0  0  0  0  0999 V2000
    8.8044   -2.8889    0.0000 Cl   0  0  0  0  0  0  0  0  0  0  0  0
    7.9738   -3.3684    0.0000 C    0  0  0  0  0  0  0  0  0  0  0  0
    7.9738   -4.3275    0.0000 C    0  0  0  0  0  0  0  0  0  0  0  0
    7.1433   -4.8071    0.0000 C    0  0  0  0  0  0  0  0  0  0  0  0
    6.3127   -4.3275    0.0000 C    0  0  0  0  0  0  0  0  0  0  0  0
    5.4821   -4.8071    0.0000 C    0  0  0  0  0  0  0  0  0  0  0  0
    4.6541   -4.3231    0.0000 C    0  0  0  0  0  0  0  0  0  0  0  0
    4.6596   -3.3650    0.0000 C    0  0  0  0  0  0  0  0  0  0  0  0
    3.8327   -2.8811    0.0000 C    0  0  0  0  0  0  0  0  0  0  0  0
    3.8382   -1.9230    0.0000 C    0  0  0  0  0  0  0  0  0  0  0  0
    4.6707   -1.4487    0.0000 C    0  0  0  0  0  0  0  0  0  0  0  0
    4.6762   -0.4906    0.0000 Cl   0  0  0  0  0  0  0  0  0  0  0  0
    5.4977   -1.9326    0.0000 C    0  0  0  0  0  0  0  0  0  0  0  0
    5.4921   -2.8907    0.0000 C    0  0  0  0  0  0  0  0  0  0  0  0
    3.8214   -4.7970    0.0000 P    0  3  0  0  0  0  0  0  0  0  0  0
    2.9944   -4.3131    0.0000 C    0  0  0  0  0  0  0  0  0  0  0  0
    2.0363   -4.3076    0.0000 C    0  0  0  0  0  0  0  0  0  0  0  0
    1.5621   -3.4751    0.0000 C    0  0  0  0  0  0  0  0  0  0  0  0
    2.0459   -2.6481    0.0000 C    0  0  0  0  0  0  0  0  0  0  0  0
    3.0040   -2.6537    0.0000 C    0  0  0  0  0  0  0  0  0  0  0  0
    3.4783   -3.4862    0.0000 C    0  0  0  0  0  0  0  0  0  0  0  0
    2.1560   -5.7449    0.0000 C    0  0  0  0  0  0  0  0  0  0  0  0
    2.1501   -6.7030    0.0000 C    0  0  0  0  0  0  0  0  0  0  0  0
    1.3174   -7.1769    0.0000 C    0  0  0  0  0  0  0  0  0  0  0  0
    0.4906   -6.6927    0.0000 C    0  0  0  0  0  0  0  0  0  0  0  0
    0.4966   -5.7346    0.0000 C    0  0  0  0  0  0  0  0  0  0  0  0
    1.3292   -5.2607    0.0000 C    0  0  0  0  0  0  0  0  0  0  0  0
    3.8112   -5.7650    0.0000 C    0  0  0  0  0  0  0  0  0  0  0  0
    2.9756   -6.2439    0.0000 C    0  0  0  0  0  0  0  0  0  0  0  0
    2.9714   -7.2017    0.0000 C    0  0  0  0  0  0  0  0  0  0  0  0
    3.7994   -7.6857    0.0000 C    0  0  0  0  0  0  0  0  0  0  0  0
    4.6415   -7.2177    0.0000 C    0  0  0  0  0  0  0  0  0  0  0  0
    5.4744   -7.7045    0.0000 C    0  0  0  0  0  0  0  0  0  0  0  0
    6.3109   -7.2129    0.0000 C    0  0  0  0  0  0  0  0  0  0  0  0
    6.3202   -6.2577    0.0000 C    0  0  0  0  0  0  0  0  0  0  0  0
    5.4873   -5.7708    0.0000 C    0  0  0  0  0  0  0  0  0  0  0  0
    4.6392   -6.2490    0.0000 C    0  0  0  0  0  0  0  0  0  0  0  0
    6.3127   -3.3684    0.0000 C    0  0  0  0  0  0  0  0  0  0  0  0
    7.1433   -2.8889    0.0000 C    0  0  0  0  0  0  0  0  0  0  0  0
   10.7670   -2.4532    0.0000 F    0  0  0  0  0  0  0  0  0  0  0  0
   10.7670   -1.4719    0.0000 B    0  5  0  0  0  0  0  0  0  0  0  0
   11.7483   -1.4719    0.0000 F    0  0  0  0  0  0  0  0  0  0  0  0
   10.7670   -0.4906    0.0000 F    0  0  0  0  0  0  0  0  0  0  0  0
    9.7857   -1.4719    0.0000 F    0  0  0  0  0  0  0  0  0  0  0  0
  1  2  1  0  0  0  0
  2 39  2  0  0  0  0
  2  3  1  0  0  0  0
  3  4  2  0  0  0  0
  4  5  1  0  0  0  0
  5  6  1  0  0  0  0
  5 38  2  0  0  0  0
  6 36  1  0  0  0  0
  6  7  2  0  0  0  0
  7  8  1  0  0  0  0
  7 15  1  0  0  0  0
  8 14  2  0  0  0  0
  8  9  1  0  0  0  0
  9 10  2  0  0  0  0
 10 11  1  0  0  0  0
 11 12  1  0  0  0  0
 11 13  2  0  0  0  0
 13 14  1  0  0  0  0
 15 16  1  0  0  0  0
 15 22  1  0  0  0  0
 15 28  1  0  0  0  0
 16 21  2  0  0  0  0
 16 17  1  0  0  0  0
 17 18  2  0  0  0  0
 18 19  1  0  0  0  0
 19 20  2  0  0  0  0
 20 21  1  0  0  0  0
 22 27  2  0  0  0  0
 22 23  1  0  0  0  0
 23 24  2  0  0  0  0
 24 25  1  0  0  0  0
 25 26  2  0  0  0  0
 26 27  1  0  0  0  0
 28 37  2  0  0  0  0
 28 29  1  0  0  0  0
 29 30  2  0  0  0  0
 30 31  1  0  0  0  0
 31 32  2  0  0  0  0
 32 37  1  0  0  0  0
 32 33  1  0  0  0  0
 33 34  2  0  0  0  0
 34 35  1  0  0  0  0
 35 36  2  0  0  0  0
 36 37  1  0  0  0  0
 38 39  1  0  0  0  0
 40 41  1  0  0  0  0
 41 42  1  0  0  0  0
 41 43  1  0  0  0  0
 41 44  1  0  0  0  0
M  END
> <NMREDATA_VERSION>
1.1

> <NMREDATA_LEVEL>
0

> <NMREDATA_SOLVENT>
CDCl3

> <NMREDATA_FORMULA>
C36H24BCl2F4P

> <NMREDATA_SMILES>
F[B](F)(F)F.Clc1ccc(cc1)C1=C(c2ccc(cc2)Cl)P(c2c3c1cccc3ccc2)(c1ccccc1)c1ccccc1

> <NMREDATA_ASSIGNMENT>
P15, 0.52, 15

> <NMREDATA_1D_31P>
Larmor=162
0.52, L=P15

$$$$
