
 OpenBabel06112616432D

 38 44  0  0  0  0  0  0  0  0999 V2000
    1.9556   -0.9778    0.0000 O   0  0  0  0  0  0  0  0  0  0  0  0
    1.9556    0.0000    0.0000 P   0  0  0  0  0  0  0  0  0  0  0  0
    2.9333    0.0000    0.0000 C   0  0  0  0  0  0  0  0  0  0  0  0
    3.4222    0.8468    0.0000 C   0  0  0  0  0  0  0  0  0  0  0  0
    4.4000    0.8468    0.0000 C   0  0  0  0  0  0  0  0  0  0  0  0
    4.8889    0.0000    0.0000 C   0  0  0  0  0  0  0  0  0  0  0  0
    4.4000   -0.8468    0.0000 C   0  0  0  0  0  0  0  0  0  0  0  0
    3.4222   -0.8468    0.0000 C   0  0  0  0  0  0  0  0  0  0  0  0
    1.9556    0.9778    0.0000 C   0  0  0  0  0  0  0  0  0  0  0  0
    1.1088    1.4667    0.0000 C   0  0  0  0  0  0  0  0  0  0  0  0
    1.1088    2.4444    0.0000 C   0  0  0  0  0  0  0  0  0  0  0  0
    1.9556    2.9333    0.0000 C   0  0  0  0  0  0  0  0  0  0  0  0
    2.8023    2.4444    0.0000 C   0  0  0  0  0  0  0  0  0  0  0  0
    2.8023    1.4667    0.0000 C   0  0  0  0  0  0  0  0  0  0  0  0
    0.0000    0.0000    0.0000 C   0  0  0  0  0  0  0  0  0  0  0  0
   -0.4889   -0.8468    0.0000 C   0  0  0  0  0  0  0  0  0  0  0  0
    0.0000   -1.6936    0.0000 O   0  0  0  0  0  0  0  0  0  0  0  0
   -1.4667   -0.8468    0.0000 C   0  0  0  0  0  0  0  0  0  0  0  0
   -1.9556   -1.6936    0.0000 C   0  0  0  0  0  0  0  0  0  0  0  0
   -2.9333   -1.6936    0.0000 C   0  0  0  0  0  0  0  0  0  0  0  0
   -3.4222   -0.8468    0.0000 C   0  0  0  0  0  0  0  0  0  0  0  0
   -2.9333    0.0000    0.0000 C   0  0  0  0  0  0  0  0  0  0  0  0
   -1.9556    0.0000    0.0000 C   0  0  0  0  0  0  0  0  0  0  0  0
   -1.4667    0.8468    0.0000 C   0  0  0  0  0  0  0  0  0  0  0  0
   -1.7688    1.7767    0.0000 O   0  0  0  0  0  0  0  0  0  0  0  0
   -0.9778    2.3514    0.0000 C   0  0  0  0  0  0  0  0  0  0  0  0
   -0.9778    3.3292    0.0000 C   0  0  0  0  0  0  0  0  0  0  0  0
   -0.1310    3.8181    0.0000 C   0  0  0  0  0  0  0  0  0  0  0  0
   -0.1310    4.7959    0.0000 C   0  0  0  0  0  0  0  0  0  0  0  0
   -0.9778    5.2848    0.0000 C   0  0  0  0  0  0  0  0  0  0  0  0
   -1.8246    4.7959    0.0000 C   0  0  0  0  0  0  0  0  0  0  0  0
   -2.6713    5.2848    0.0000 C   0  0  0  0  0  0  0  0  0  0  0  0
   -3.5181    4.7959    0.0000 C   0  0  0  0  0  0  0  0  0  0  0  0
   -3.5181    3.8181    0.0000 C   0  0  0  0  0  0  0  0  0  0  0  0
   -2.6713    3.3292    0.0000 C   0  0  0  0  0  0  0  0  0  0  0  0
   -1.8246    3.8181    0.0000 C   0  0  0  0  0  0  0  0  0  0  0  0
   -0.1867    1.7767    0.0000 N   0  0  0  0  0  0  0  0  0  0  0  0
   -0.4889    0.8468    0.0000 C   0  0  0  0  0  0  0  0  0  0  0  0
  1  2  2  0  0  0  0
  2  3  1  0  0  0  0
  2  9  1  0  0  0  0
  2 15  1  0  0  0  0
  3  8  2  0  0  0  0
  3  4  1  0  0  0  0
  4  5  2  0  0  0  0
  5  6  1  0  0  0  0
  6  7  2  0  0  0  0
  7  8  1  0  0  0  0
  9 14  2  0  0  0  0
  9 10  1  0  0  0  0
 10 11  2  0  0  0  0
 11 12  1  0  0  0  0
 12 13  2  0  0  0  0
 13 14  1  0  0  0  0
 15 38  2  0  0  0  0
 15 16  1  0  0  0  0
 16 17  1  0  0  0  0
 16 18  2  0  0  0  0
 18 23  1  0  0  0  0
 18 19  1  0  0  0  0
 19 20  2  0  0  0  0
 20 21  1  0  0  0  0
 21 22  2  0  0  0  0
 22 23  1  0  0  0  0
 23 24  2  0  0  0  0
 24 38  1  0  0  0  0
 24 25  1  0  0  0  0
 25 26  1  0  0  0  0
 26 27  1  0  0  0  0
 26 37  2  0  0  0  0
 27 36  2  0  0  0  0
 27 28  1  0  0  0  0
 28 29  2  0  0  0  0
 29 30  1  0  0  0  0
 30 31  2  0  0  0  0
 31 36  1  0  0  0  0
 31 32  1  0  0  0  0
 32 33  2  0  0  0  0
 33 34  1  0  0  0  0
 34 35  2  0  0  0  0
 35 36  1  0  0  0  0
 37 38  1  0  0  0  0
M  END
> <NMREDATA_VERSION>
1.1

> <NMREDATA_LEVEL>
0

> <NMREDATA_SOLVENT>
CDCl3

> <NMREDATA_FORMULA>
C33H22NO3P

> <NMREDATA_SMILES>
Oc1c2ccccc2c2c(c1P(=O)(c1ccccc1)c1ccccc1)nc(o2)c1cccc2c1cccc2

> <NMREDATA_ASSIGNMENT>
P2, 39.06, 2

> <NMREDATA_1D_31P>
Larmor=162
39.06, L=P2

$$$$
