
 OpenBabel06112616452D

 29 31  0  0  0  0  0  0  0  0999 V2000
   -2.4945   -1.9706    0.0000 N    0  0  0  0  0  0  0  0  0  0  0  0
   -3.1637   -1.2274    0.0000 C    0  0  0  0  0  0  0  0  0  0  0  0
   -2.8546   -0.2764    0.0000 O    0  0  0  0  0  0  0  0  0  0  0  0
   -4.1418   -1.4353    0.0000 O    0  0  0  0  0  0  0  0  0  0  0  0
   -4.8109   -0.6922    0.0000 C    0  0  0  0  0  0  0  0  0  0  0  0
   -5.7891   -0.9001    0.0000 C    0  0  0  0  0  0  0  0  0  0  0  0
   -6.0981   -1.8511    0.0000 C    0  0  0  0  0  0  0  0  0  0  0  0
   -7.0762   -2.0591    0.0000 C    0  0  0  0  0  0  0  0  0  0  0  0
   -7.7454   -1.3159    0.0000 C    0  0  0  0  0  0  0  0  0  0  0  0
   -7.4364   -0.3649    0.0000 C    0  0  0  0  0  0  0  0  0  0  0  0
   -6.4582   -0.1569    0.0000 C    0  0  0  0  0  0  0  0  0  0  0  0
   -1.5000   -1.8660    0.0000 C    0  0  0  0  0  0  0  0  0  0  0  0
   -1.0000   -1.0000    0.0000 C    0  0  0  0  0  0  0  0  0  0  0  0
    0.0000   -1.0000    0.0000 P    0  0  0  0  0  0  0  0  0  0  0  0
    0.0000   -2.0000    0.0000 O    0  0  0  0  0  0  0  0  0  0  0  0
    1.0000   -1.0000    0.0000 O    0  0  0  0  0  0  0  0  0  0  0  0
    1.5000   -0.1340    0.0000 C    0  0  0  0  0  0  0  0  0  0  0  0
    2.5000   -0.1340    0.0000 C    0  0  0  0  0  0  0  0  0  0  0  0
    0.0000    0.0000    0.0000 O    0  0  0  0  0  0  0  0  0  0  0  0
    0.8660    0.5000    0.0000 C    0  0  0  0  0  0  0  0  0  0  0  0
    0.8660    1.5000    0.0000 C    0  0  0  0  0  0  0  0  0  0  0  0
   -1.0933   -2.7796    0.0000 C    0  0  0  0  0  0  0  0  0  0  0  0
   -1.8364   -3.4487    0.0000 C    0  0  0  0  0  0  0  0  0  0  0  0
   -1.8364   -4.4487    0.0000 C    0  0  0  0  0  0  0  0  0  0  0  0
   -0.9704   -4.9487    0.0000 Cl   0  0  0  0  0  0  0  0  0  0  0  0
   -2.7024   -4.9487    0.0000 C    0  0  0  0  0  0  0  0  0  0  0  0
   -3.5685   -4.4487    0.0000 C    0  0  0  0  0  0  0  0  0  0  0  0
   -3.5685   -3.4487    0.0000 C    0  0  0  0  0  0  0  0  0  0  0  0
   -2.7024   -2.9487    0.0000 C    0  0  0  0  0  0  0  0  0  0  0  0
  1 29  1  0  0  0  0
  1  2  1  0  0  0  0
  1 12  1  0  0  0  0
  2  3  2  0  0  0  0
  2  4  1  0  0  0  0
  4  5  1  0  0  0  0
  5  6  1  0  0  0  0
  6 11  2  0  0  0  0
  6  7  1  0  0  0  0
  7  8  2  0  0  0  0
  8  9  1  0  0  0  0
  9 10  2  0  0  0  0
 10 11  1  0  0  0  0
 12 13  1  0  0  0  0
 12 22  2  0  0  0  0
 13 14  1  0  0  0  0
 14 15  2  0  0  0  0
 14 16  1  0  0  0  0
 14 19  1  0  0  0  0
 16 17  1  0  0  0  0
 17 18  1  0  0  0  0
 19 20  1  0  0  0  0
 20 21  1  0  0  0  0
 22 23  1  0  0  0  0
 23 29  2  0  0  0  0
 23 24  1  0  0  0  0
 24 25  1  0  0  0  0
 24 26  2  0  0  0  0
 26 27  1  0  0  0  0
 27 28  2  0  0  0  0
 28 29  1  0  0  0  0
M  END
> <NMREDATA_VERSION>
1.1

> <NMREDATA_LEVEL>
0

> <NMREDATA_SOLVENT>
CDCl3

> <NMREDATA_FORMULA>
C21H23ClNO5P

> <NMREDATA_SMILES>
CCOP(=O)(Cc1cc2c(n1C(=O)OCc1ccccc1)cccc2Cl)OCC

> <NMREDATA_ASSIGNMENT>
P14, 24.21, 14

> <NMREDATA_1D_31P>
Larmor=162
24.21, L=P14

$$$$
