
 OpenBabel06112616482D

 41 46  0  0  0  0  0  0  0  0999 V2000
    2.4468    0.8476    0.0000 C   0  0  0  0  0  0  0  0  0  0  0  0
    4.1420    1.8263    0.0000 C   0  0  0  0  0  0  0  0  0  0  0  0
    4.1420    2.8050    0.0000 O   0  0  0  0  0  0  0  0  0  0  0  0
    4.9896    1.3370    0.0000 O   0  0  0  0  0  0  0  0  0  0  0  0
    5.8372    1.8263    0.0000 C   0  0  0  0  0  0  0  0  0  0  0  0
    2.4468    1.8263    0.0000 C   0  0  0  0  0  0  0  0  0  0  0  0
    3.2944    2.3157    0.0000 O   0  0  0  0  0  0  0  0  0  0  0  0
    1.5992    2.3157    0.0000 O   0  0  0  0  0  0  0  0  0  0  0  0
    1.5992    3.2944    0.0000 C   0  0  0  0  0  0  0  0  0  0  0  0
    2.9362    0.0000    0.0000 C   0  0  0  0  0  0  0  0  0  0  0  0
    2.4468   -0.8476    0.0000 C   0  0  0  0  0  0  0  0  0  0  0  0
    2.7493   -1.7784    0.0000 C   0  0  0  0  0  0  0  0  0  0  0  0
    3.6801   -2.0809    0.0000 C   0  0  0  0  0  0  0  0  0  0  0  0
    4.4074   -1.4260    0.0000 C   0  0  0  0  0  0  0  0  0  0  0  0
    5.3382   -1.7284    0.0000 C   0  0  0  0  0  0  0  0  0  0  0  0
    5.5417   -2.6857    0.0000 C   0  0  0  0  0  0  0  0  0  0  0  0
    4.8144   -3.3406    0.0000 C   0  0  0  0  0  0  0  0  0  0  0  0
    3.8836   -3.0382    0.0000 C   0  0  0  0  0  0  0  0  0  0  0  0
    1.9574   -2.3537    0.0000 C   0  0  0  0  0  0  0  0  0  0  0  0
    1.8551   -3.3271    0.0000 C   0  0  0  0  0  0  0  0  0  0  0  0
    0.9610   -3.7251    0.0000 C   0  0  0  0  0  0  0  0  0  0  0  0
    0.1692   -3.1499    0.0000 C   0  0  0  0  0  0  0  0  0  0  0  0
    0.2715   -2.1765    0.0000 C   0  0  0  0  0  0  0  0  0  0  0  0
    1.1656   -1.7784    0.0000 C   0  0  0  0  0  0  0  0  0  0  0  0
    1.4681   -0.8476    0.0000 C   0  0  0  0  0  0  0  0  0  0  0  0
    0.9787    0.0000    0.0000 C   0  0  0  0  0  0  0  0  0  0  0  0
    0.0000    0.0000    0.0000 P   0  0  0  0  0  0  0  0  0  0  0  0
    0.0000   -0.9787    0.0000 O   0  0  0  0  0  0  0  0  0  0  0  0
   -0.9787    0.0000    0.0000 C   0  0  0  0  0  0  0  0  0  0  0  0
   -1.4681    0.8476    0.0000 C   0  0  0  0  0  0  0  0  0  0  0  0
   -2.4468    0.8476    0.0000 C   0  0  0  0  0  0  0  0  0  0  0  0
   -2.9362    0.0000    0.0000 C   0  0  0  0  0  0  0  0  0  0  0  0
   -2.4468   -0.8476    0.0000 C   0  0  0  0  0  0  0  0  0  0  0  0
   -1.4681   -0.8476    0.0000 C   0  0  0  0  0  0  0  0  0  0  0  0
    0.0000    0.9787    0.0000 C   0  0  0  0  0  0  0  0  0  0  0  0
    0.8476    1.4681    0.0000 C   0  0  0  0  0  0  0  0  0  0  0  0
    0.8476    2.4468    0.0000 C   0  0  0  0  0  0  0  0  0  0  0  0
    0.0000    2.9362    0.0000 C   0  0  0  0  0  0  0  0  0  0  0  0
   -0.8476    2.4468    0.0000 C   0  0  0  0  0  0  0  0  0  0  0  0
   -0.8476    1.4681    0.0000 C   0  0  0  0  0  0  0  0  0  0  0  0
    1.4681    0.8476    0.0000 C   0  0  0  0  0  0  0  0  0  0  0  0
  1 41  1  0  0  0  0
  1  2  1  0  0  0  0
  1  6  1  0  0  0  0
  1 10  1  0  0  0  0
  2  3  2  0  0  0  0
  2  4  1  0  0  0  0
  4  5  1  0  0  0  0
  6  7  2  0  0  0  0
  6  8  1  0  0  0  0
  8  9  1  0  0  0  0
 10 11  1  0  0  0  0
 11 25  1  0  0  0  0
 11 12  2  0  0  0  0
 12 13  1  0  0  0  0
 12 19  1  0  0  0  0
 13 18  2  0  0  0  0
 13 14  1  0  0  0  0
 14 15  2  0  0  0  0
 15 16  1  0  0  0  0
 16 17  2  0  0  0  0
 17 18  1  0  0  0  0
 19 24  2  0  0  0  0
 19 20  1  0  0  0  0
 20 21  2  0  0  0  0
 21 22  1  0  0  0  0
 22 23  2  0  0  0  0
 23 24  1  0  0  0  0
 24 25  1  0  0  0  0
 25 26  2  0  0  0  0
 26 27  1  0  0  0  0
 26 41  1  0  0  0  0
 27 28  2  0  0  0  0
 27 29  1  0  0  0  0
 27 35  1  0  0  0  0
 29 34  2  0  0  0  0
 29 30  1  0  0  0  0
 30 31  2  0  0  0  0
 31 32  1  0  0  0  0
 32 33  2  0  0  0  0
 33 34  1  0  0  0  0
 35 40  2  0  0  0  0
 35 36  1  0  0  0  0
 36 37  2  0  0  0  0
 37 38  1  0  0  0  0
 38 39  2  0  0  0  0
 39 40  1  0  0  0  0
M  END
> <NMREDATA_VERSION>
1.1

> <NMREDATA_LEVEL>
0

> <NMREDATA_SOLVENT>
CDCl3

> <NMREDATA_FORMULA>
C35H29O5P

> <NMREDATA_SMILES>
COC(=O)C1(CC2=C(c3ccccc3)c3c(C2=C(C1)P(=O)(c1ccccc1)c1ccccc1)cccc3)C(=O)OC

> <NMREDATA_ASSIGNMENT>
P27, 29.27, 27

> <NMREDATA_1D_31P>
Larmor=162
29.27, L=P27

$$$$
