
 OpenBabel06112616492D

 43 46  0  0  0  0  0  0  0  0999 V2000
    2.3469   -1.7518    0.0000 C   0  0  0  0  0  0  0  0  0  0  0  0
    2.8163   -2.5648    0.0000 C   0  0  0  0  0  0  0  0  0  0  0  0
    2.3469   -3.3778    0.0000 C   0  0  0  0  0  0  0  0  0  0  0  0
    3.7551   -2.5648    0.0000 C   0  0  0  0  0  0  0  0  0  0  0  0
    4.2245   -1.7518    0.0000 C   0  0  0  0  0  0  0  0  0  0  0  0
    3.7551   -0.9388    0.0000 S   0  0  0  0  0  0  0  0  0  0  0  0
    0.0000   -0.9388    0.0000 P   0  0  0  0  0  0  0  0  0  0  0  0
    0.0000   -1.8776    0.0000 C   0  0  0  0  0  0  0  0  0  0  0  0
   -0.8130   -2.3469    0.0000 C   0  0  0  0  0  0  0  0  0  0  0  0
   -0.8130   -3.2857    0.0000 C   0  0  0  0  0  0  0  0  0  0  0  0
    0.0000   -3.7551    0.0000 C   0  0  0  0  0  0  0  0  0  0  0  0
    0.8130   -3.2857    0.0000 C   0  0  0  0  0  0  0  0  0  0  0  0
    0.8130   -2.3469    0.0000 C   0  0  0  0  0  0  0  0  0  0  0  0
   -0.9388   -0.9388    0.0000 C   0  0  0  0  0  0  0  0  0  0  0  0
   -1.4082   -0.1258    0.0000 C   0  0  0  0  0  0  0  0  0  0  0  0
   -2.3469   -0.1258    0.0000 C   0  0  0  0  0  0  0  0  0  0  0  0
   -2.8163   -0.9388    0.0000 C   0  0  0  0  0  0  0  0  0  0  0  0
   -2.3469   -1.7518    0.0000 C   0  0  0  0  0  0  0  0  0  0  0  0
   -1.4082   -1.7518    0.0000 C   0  0  0  0  0  0  0  0  0  0  0  0
    0.0000    0.0000    0.0000 N   0  0  0  0  0  0  0  0  0  0  0  0
    0.0000    0.9388    0.0000 S   0  0  0  0  0  0  0  0  0  0  0  0
    0.9388    0.9388    0.0000 C   0  0  0  0  0  0  0  0  0  0  0  0
    1.4082    1.7518    0.0000 C   0  0  0  0  0  0  0  0  0  0  0  0
    2.3469    1.7518    0.0000 C   0  0  0  0  0  0  0  0  0  0  0  0
    2.8163    0.9388    0.0000 C   0  0  0  0  0  0  0  0  0  0  0  0
    3.7551    0.9388    0.0000 C   0  0  0  0  0  0  0  0  0  0  0  0
    4.5681    1.4082    0.0000 C   0  0  0  0  0  0  0  0  0  0  0  0
    3.7551    1.8776    0.0000 C   0  0  0  0  0  0  0  0  0  0  0  0
    4.2245    0.1258    0.0000 C   0  0  0  0  0  0  0  0  0  0  0  0
    2.3469    0.1258    0.0000 C   0  0  0  0  0  0  0  0  0  0  0  0
    1.4082    0.1258    0.0000 C   0  0  0  0  0  0  0  0  0  0  0  0
    0.0000    1.8776    0.0000 O   0  0  0  0  0  0  0  0  0  0  0  0
   -0.9388    0.9388    0.0000 O   0  0  0  0  0  0  0  0  0  0  0  0
    5.1633   -1.7518    0.0000 C   0  0  0  0  0  0  0  0  0  0  0  0
    5.6327   -0.9388    0.0000 C   0  0  0  0  0  0  0  0  0  0  0  0
    6.5714   -0.9388    0.0000 C   0  0  0  0  0  0  0  0  0  0  0  0
    5.1633   -0.1258    0.0000 C   0  0  0  0  0  0  0  0  0  0  0  0
    5.6327   -2.5648    0.0000 C   0  0  0  0  0  0  0  0  0  0  0  0
    5.1633   -3.3778    0.0000 C   0  0  0  0  0  0  0  0  0  0  0  0
    5.6327   -4.1908    0.0000 C   0  0  0  0  0  0  0  0  0  0  0  0
    5.1633   -5.0038    0.0000 C   0  0  0  0  0  0  0  0  0  0  0  0
    6.5714   -4.1908    0.0000 C   0  0  0  0  0  0  0  0  0  0  0  0
    4.2245   -3.3778    0.0000 C   0  0  0  0  0  0  0  0  0  0  0  0
  1  2  1  0  0  0  0
  2  3  1  0  0  0  0
  2  4  1  0  0  0  0
  4 43  2  0  0  0  0
  4  5  1  0  0  0  0
  5  6  1  0  0  0  0
  5 34  2  0  0  0  0
  6  7  1  0  0  0  0
  7  8  1  0  0  0  0
  7 14  1  0  0  0  0
  7 20  2  0  0  0  0
  8 13  1  0  0  0  0
  8  9  1  0  0  0  0
  9 10  1  0  0  0  0
 10 11  1  0  0  0  0
 11 12  1  0  0  0  0
 12 13  1  0  0  0  0
 14 19  1  0  0  0  0
 14 15  1  0  0  0  0
 15 16  1  0  0  0  0
 16 17  1  0  0  0  0
 17 18  1  0  0  0  0
 18 19  1  0  0  0  0
 20 21  1  0  0  0  0
 21 22  1  0  0  0  0
 21 32  2  0  0  0  0
 21 33  2  0  0  0  0
 22 31  2  0  0  0  0
 22 23  1  0  0  0  0
 23 24  2  0  0  0  0
 24 25  1  0  0  0  0
 25 26  1  0  0  0  0
 25 30  2  0  0  0  0
 26 27  1  0  0  0  0
 26 28  1  0  0  0  0
 26 29  1  0  0  0  0
 30 31  1  0  0  0  0
 34 35  1  0  0  0  0
 34 38  1  0  0  0  0
 35 36  1  0  0  0  0
 35 37  1  0  0  0  0
 38 39  2  0  0  0  0
 39 40  1  0  0  0  0
 39 43  1  0  0  0  0
 40 41  1  0  0  0  0
 40 42  1  0  0  0  0
M  END
> <NMREDATA_VERSION>
1.1

> <NMREDATA_LEVEL>
0

> <NMREDATA_SOLVENT>
CD3CN

> <NMREDATA_FORMULA>
C37H58NO2PS2

> <NMREDATA_SMILES>
CC(c1cc(cc(c1SP(=NS(=O)(=O)c1ccc(cc1)C(C)(C)C)(C1CCCCC1)C1CCCCC1)C(C)C)C(C)C)C

> <NMREDATA_ASSIGNMENT>
P7, 32.23, 7

> <NMREDATA_1D_31P>
Larmor=162
32.23, L=P7

$$$$
