
 OpenBabel06112616432D

 38 43  0  0  0  0  0  0  0  0999 V2000
    1.9545    0.7154    0.0000 O   0  0  0  0  0  0  0  0  0  0  0  0
    2.9318    0.7154    0.0000 C   0  0  0  0  0  0  0  0  0  0  0  0
    3.4205    1.5618    0.0000 C   0  0  0  0  0  0  0  0  0  0  0  0
    4.3977    1.5618    0.0000 C   0  0  0  0  0  0  0  0  0  0  0  0
    4.8864    0.7154    0.0000 C   0  0  0  0  0  0  0  0  0  0  0  0
    5.8636    0.7154    0.0000 C   0  0  0  0  0  0  0  0  0  0  0  0
    6.3523   -0.1309    0.0000 C   0  0  0  0  0  0  0  0  0  0  0  0
    5.8636   -0.9773    0.0000 C   0  0  0  0  0  0  0  0  0  0  0  0
    4.8864   -0.9773    0.0000 C   0  0  0  0  0  0  0  0  0  0  0  0
    4.3977   -0.1309    0.0000 C   0  0  0  0  0  0  0  0  0  0  0  0
    3.4205   -0.1309    0.0000 C   0  0  0  0  0  0  0  0  0  0  0  0
    2.4432   -1.8236    0.0000 C   0  0  0  0  0  0  0  0  0  0  0  0
    1.4659   -1.8236    0.0000 C   0  0  0  0  0  0  0  0  0  0  0  0
    0.9773   -0.9773    0.0000 O   0  0  0  0  0  0  0  0  0  0  0  0
    0.0000   -0.9773    0.0000 P   0  0  0  0  0  0  0  0  0  0  0  0
    0.0000   -1.9545    0.0000 O   0  0  0  0  0  0  0  0  0  0  0  0
   -0.9773   -0.9773    0.0000 C   0  0  0  0  0  0  0  0  0  0  0  0
   -1.4659   -0.1309    0.0000 C   0  0  0  0  0  0  0  0  0  0  0  0
   -2.4432   -0.1309    0.0000 C   0  0  0  0  0  0  0  0  0  0  0  0
   -2.9318   -0.9773    0.0000 C   0  0  0  0  0  0  0  0  0  0  0  0
   -2.4432   -1.8236    0.0000 C   0  0  0  0  0  0  0  0  0  0  0  0
   -1.4659   -1.8236    0.0000 C   0  0  0  0  0  0  0  0  0  0  0  0
    0.0000    0.0000    0.0000 C   0  0  0  0  0  0  0  0  0  0  0  0
    0.8463    0.4886    0.0000 C   0  0  0  0  0  0  0  0  0  0  0  0
    0.8463    1.4659    0.0000 C   0  0  0  0  0  0  0  0  0  0  0  0
    0.0000    1.9545    0.0000 C   0  0  0  0  0  0  0  0  0  0  0  0
   -0.8463    1.4659    0.0000 C   0  0  0  0  0  0  0  0  0  0  0  0
   -0.8463    0.4886    0.0000 C   0  0  0  0  0  0  0  0  0  0  0  0
    0.9773   -2.6700    0.0000 C   0  0  0  0  0  0  0  0  0  0  0  0
    1.4659   -3.5163    0.0000 C   0  0  0  0  0  0  0  0  0  0  0  0
    2.4432   -3.5163    0.0000 C   0  0  0  0  0  0  0  0  0  0  0  0
    2.9318   -4.3626    0.0000 C   0  0  0  0  0  0  0  0  0  0  0  0
    3.9091   -4.3626    0.0000 C   0  0  0  0  0  0  0  0  0  0  0  0
    4.3977   -3.5163    0.0000 C   0  0  0  0  0  0  0  0  0  0  0  0
    5.3750   -3.5163    0.0000 C   0  0  0  0  0  0  0  0  0  0  0  0
    3.9091   -2.6700    0.0000 C   0  0  0  0  0  0  0  0  0  0  0  0
    2.9318   -2.6700    0.0000 C   0  0  0  0  0  0  0  0  0  0  0  0
    1.4659    1.5618    0.0000 C   0  0  0  0  0  0  0  0  0  0  0  0
  1  2  1  0  0  0  0
  1 38  1  0  0  0  0
  2 11  2  0  0  0  0
  2  3  1  0  0  0  0
  3  4  2  0  0  0  0
  4  5  1  0  0  0  0
  5 10  2  0  0  0  0
  5  6  1  0  0  0  0
  6  7  2  0  0  0  0
  7  8  1  0  0  0  0
  8  9  2  0  0  0  0
  9 10  1  0  0  0  0
 10 11  1  0  0  0  0
 11 12  1  0  0  0  0
 12 37  1  0  0  0  0
 12 13  2  0  0  0  0
 13 14  1  0  0  0  0
 13 29  1  0  0  0  0
 14 15  1  0  0  0  0
 15 16  2  0  0  0  0
 15 17  1  0  0  0  0
 15 23  1  0  0  0  0
 17 22  2  0  0  0  0
 17 18  1  0  0  0  0
 18 19  2  0  0  0  0
 19 20  1  0  0  0  0
 20 21  2  0  0  0  0
 21 22  1  0  0  0  0
 23 28  2  0  0  0  0
 23 24  1  0  0  0  0
 24 25  2  0  0  0  0
 25 26  1  0  0  0  0
 26 27  2  0  0  0  0
 27 28  1  0  0  0  0
 29 30  1  0  0  0  0
 30 31  1  0  0  0  0
 31 37  2  0  0  0  0
 31 32  1  0  0  0  0
 32 33  2  0  0  0  0
 33 34  1  0  0  0  0
 34 35  1  0  0  0  0
 34 36  2  0  0  0  0
 36 37  1  0  0  0  0
M  END
> <NMREDATA_VERSION>
1.1

> <NMREDATA_LEVEL>
0

> <NMREDATA_SOLVENT>
CDCl3

> <NMREDATA_FORMULA>
C34H29O3P

> <NMREDATA_SMILES>
COc1ccc2c(c1C1=C(CCc3c1cc(C)cc3)OP(=O)(c1ccccc1)c1ccccc1)cccc2

> <NMREDATA_ASSIGNMENT>
P15, 27.90, 15

> <NMREDATA_1D_31P>
Larmor=162
27.90, L=P15

$$$$
