
 OpenBabel06112616472D

 43 48  0  0  1  0  0  0  0  0999 V2000
   -4.8000   -1.9200    0.0000 C   0  0  0  0  0  0  0  0  0  0  0  0
   -3.8400   -1.9200    0.0000 C   0  0  0  0  0  0  0  0  0  0  0  0
   -3.3600   -1.0886    0.0000 C   0  0  0  0  0  0  0  0  0  0  0  0
   -2.4000   -1.0886    0.0000 C   0  0  0  0  0  0  0  0  0  0  0  0
   -1.9200   -1.9200    0.0000 C   0  0  0  0  0  0  0  0  0  0  0  0
    0.0000   -1.9200    0.0000 P   0  0  0  0  0  0  0  0  0  0  0  0
    0.0000   -2.8800    0.0000 O   0  0  0  0  0  0  0  0  0  0  0  0
    0.9600   -1.9200    0.0000 C   0  0  0  0  0  0  0  0  0  0  0  0
    1.4400   -2.7514    0.0000 C   0  0  0  0  0  0  0  0  0  0  0  0
    2.4000   -2.7514    0.0000 C   0  0  0  0  0  0  0  0  0  0  0  0
    2.8800   -1.9200    0.0000 C   0  0  0  0  0  0  0  0  0  0  0  0
    3.8400   -1.9200    0.0000 C   0  0  0  0  0  0  0  0  0  0  0  0
    4.6714   -2.4000    0.0000 F   0  0  0  0  0  0  0  0  0  0  0  0
    3.8400   -2.8800    0.0000 F   0  0  0  0  0  0  0  0  0  0  0  0
    4.3200   -1.0886    0.0000 F   0  0  0  0  0  0  0  0  0  0  0  0
    2.4000   -1.0886    0.0000 C   0  0  0  0  0  0  0  0  0  0  0  0
    1.4400   -1.0886    0.0000 C   0  0  0  0  0  0  0  0  0  0  0  0
    0.0000    0.0000    0.0000 C   0  0  1  0  0  0  0  0  0  0  0  0
    0.8314    0.4800    0.0000 C   0  0  0  0  0  0  0  0  0  0  0  0
    0.8314    1.4400    0.0000 C   0  0  0  0  0  0  0  0  0  0  0  0
    1.6628    1.9200    0.0000 C   0  0  0  0  0  0  0  0  0  0  0  0
    2.4942    1.4400    0.0000 C   0  0  0  0  0  0  0  0  0  0  0  0
    3.3255    1.9200    0.0000 C   0  0  0  0  0  0  0  0  0  0  0  0
    4.1569    1.4400    0.0000 C   0  0  0  0  0  0  0  0  0  0  0  0
    4.1569    0.4800    0.0000 C   0  0  0  0  0  0  0  0  0  0  0  0
    3.3255    0.0000    0.0000 C   0  0  0  0  0  0  0  0  0  0  0  0
    2.4942    0.4800    0.0000 C   0  0  0  0  0  0  0  0  0  0  0  0
    1.6628    0.0000    0.0000 C   0  0  0  0  0  0  0  0  0  0  0  0
   -0.8314    0.4800    0.0000 C   0  0  0  0  0  0  0  0  0  0  0  0
   -1.7084    0.0895    0.0000 C   0  0  0  0  0  0  0  0  0  0  0  0
   -1.9080   -0.8495    0.0000 C   0  0  0  0  0  0  0  0  0  0  0  0
   -2.3508    0.8030    0.0000 N   0  0  0  0  0  0  0  0  0  0  0  0
   -1.8708    1.6343    0.0000 C   0  0  0  0  0  0  0  0  0  0  0  0
   -2.1674    2.5474    0.0000 C   0  0  0  0  0  0  0  0  0  0  0  0
   -1.5250    3.2608    0.0000 C   0  0  0  0  0  0  0  0  0  0  0  0
   -0.5860    3.0612    0.0000 C   0  0  0  0  0  0  0  0  0  0  0  0
   -0.2894    2.1482    0.0000 C   0  0  0  0  0  0  0  0  0  0  0  0
   -0.9317    1.4347    0.0000 C   0  0  0  0  0  0  0  0  0  0  0  0
   -2.4000   -2.7514    0.0000 C   0  0  0  0  0  0  0  0  0  0  0  0
   -3.3600   -2.7514    0.0000 C   0  0  0  0  0  0  0  0  0  0  0  0
   -5.6314   -2.4000    0.0000 F   0  0  0  0  0  0  0  0  0  0  0  0
   -4.8000   -2.8800    0.0000 F   0  0  0  0  0  0  0  0  0  0  0  0
   -5.2800   -1.0886    0.0000 F   0  0  0  0  0  0  0  0  0  0  0  0
  1  2  1  0  0  0  0
  1 41  1  0  0  0  0
  1 42  1  0  0  0  0
  1 43  1  0  0  0  0
  2 40  2  0  0  0  0
  2  3  1  0  0  0  0
  3  4  2  0  0  0  0
  4  5  1  0  0  0  0
  5  6  1  0  0  0  0
  5 39  2  0  0  0  0
  6  7  2  0  0  0  0
  6  8  1  0  0  0  0
  8 17  2  0  0  0  0
  8  9  1  0  0  0  0
  9 10  2  0  0  0  0
 10 11  1  0  0  0  0
 11 12  1  0  0  0  0
 11 16  2  0  0  0  0
 12 13  1  0  0  0  0
 12 14  1  0  0  0  0
 12 15  1  0  0  0  0
 16 17  1  0  0  0  0
 18  6  1  6  0  0  0
 18 19  1  0  0  0  0
 18 29  1  0  0  0  0
 19 28  2  0  0  0  0
 19 20  1  0  0  0  0
 20 21  2  0  0  0  0
 21 22  1  0  0  0  0
 22 27  2  0  0  0  0
 22 23  1  0  0  0  0
 23 24  2  0  0  0  0
 24 25  1  0  0  0  0
 25 26  2  0  0  0  0
 26 27  1  0  0  0  0
 27 28  1  0  0  0  0
 29 38  1  0  0  0  0
 29 30  2  0  0  0  0
 30 31  1  0  0  0  0
 30 32  1  0  0  0  0
 32 33  1  0  0  0  0
 33 38  2  0  0  0  0
 33 34  1  0  0  0  0
 34 35  2  0  0  0  0
 35 36  1  0  0  0  0
 36 37  2  0  0  0  0
 37 38  1  0  0  0  0
 39 40  1  0  0  0  0
M  END
> <NMREDATA_VERSION>
1.1

> <NMREDATA_LEVEL>
0

> <NMREDATA_SOLVENT>
DMSO-d6

> <NMREDATA_FORMULA>
C34H24F6NOP

> <NMREDATA_SMILES>
Cc1[nH]c2c(c1[C@@H](P(=O)(c1ccc(cc1)C(F)(F)F)c1ccc(cc1)C(F)(F)F)c1ccc3c(c1)cccc3)cccc2

> <NMREDATA_ASSIGNMENT>
P6, 29.06, 6

> <NMREDATA_1D_31P>
Larmor=162
29.06, L=P6

$$$$
