
 OpenBabel06112616432D

 19 19  0  0  0  0  0  0  0  0999 V2000
   -2.5000    1.5981    0.0000 C    0  0  0  0  0  0  0  0  0  0  0  0
   -3.0000    0.7321    0.0000 Si   0  0  3  0  0  0  0  0  0  0  0  0
   -4.0000    0.7321    0.0000 C    0  0  0  0  0  0  0  0  0  0  0  0
   -2.5000   -0.1340    0.0000 C    0  0  0  0  0  0  0  0  0  0  0  0
   -1.5000   -0.1340    0.0000 C    0  0  0  0  0  0  0  0  0  0  0  0
   -1.0000   -1.0000    0.0000 C    0  0  0  0  0  0  0  0  0  0  0  0
    0.0000   -1.0000    0.0000 P    0  0  0  0  0  0  0  0  0  0  0  0
    0.0000   -2.0000    0.0000 O    0  0  0  0  0  0  0  0  0  0  0  0
    1.0000   -1.0000    0.0000 O    0  0  0  0  0  0  0  0  0  0  0  0
    1.5000   -0.1340    0.0000 C    0  0  0  0  0  0  0  0  0  0  0  0
    2.5000   -0.1340    0.0000 C    0  0  0  0  0  0  0  0  0  0  0  0
    0.0000    0.0000    0.0000 O    0  0  0  0  0  0  0  0  0  0  0  0
   -0.8660    0.5000    0.0000 C    0  0  0  0  0  0  0  0  0  0  0  0
   -0.8660    1.5000    0.0000 C    0  0  0  0  0  0  0  0  0  0  0  0
   -3.0000    2.4641    0.0000 C    0  0  0  0  0  0  0  0  0  0  0  0
   -2.5000    3.3301    0.0000 C    0  0  0  0  0  0  0  0  0  0  0  0
   -1.5000    3.3301    0.0000 C    0  0  0  0  0  0  0  0  0  0  0  0
   -1.0000    2.4641    0.0000 C    0  0  0  0  0  0  0  0  0  0  0  0
   -1.5000    1.5981    0.0000 C    0  0  0  0  0  0  0  0  0  0  0  0
  1 19  2  0  0  0  0
  1  2  1  0  0  0  0
  1 15  1  0  0  0  0
  2  3  1  0  0  0  0
  2  4  1  0  0  0  0
  4  5  1  0  0  0  0
  5  6  1  0  0  0  0
  6  7  1  0  0  0  0
  7  8  2  0  0  0  0
  7  9  1  0  0  0  0
  7 12  1  0  0  0  0
  9 10  1  0  0  0  0
 10 11  1  0  0  0  0
 12 13  1  0  0  0  0
 13 14  1  0  0  0  0
 15 16  2  0  0  0  0
 16 17  1  0  0  0  0
 17 18  2  0  0  0  0
 18 19  1  0  0  0  0
M  END
> <NMREDATA_VERSION>
1.1

> <NMREDATA_LEVEL>
0

> <NMREDATA_SOLVENT>
CDCl3

> <NMREDATA_FORMULA>
C14H25O3PSi

> <NMREDATA_SMILES>
CCOP(=O)(OCC)CCC[SiH](c1ccccc1)C

> <NMREDATA_ASSIGNMENT>
P7, 32.20, 7

> <NMREDATA_1D_31P>
Larmor=162
32.20, L=P7

$$$$
