
 OpenBabel06112616432D

 38 41  0  0  1  0  0  0  0  0999 V2000
   -5.4028   -3.5345    0.0000 O   0  0  0  0  0  0  0  0  0  0  0  0
   -5.8940   -2.6838    0.0000 C   0  0  0  0  0  0  0  0  0  0  0  0
   -5.4028   -1.8331    0.0000 N   0  0  0  0  0  0  0  0  0  0  0  0
   -4.4205   -1.8331    0.0000 C   0  0  1  0  0  0  0  0  0  0  0  0
   -3.9293   -2.6838    0.0000 C   0  0  0  0  0  0  0  0  0  0  0  0
   -2.9470   -2.6838    0.0000 C   0  0  0  0  0  0  0  0  0  0  0  0
   -2.4558   -1.8331    0.0000 C   0  0  0  0  0  0  0  0  0  0  0  0
   -1.4735   -1.8331    0.0000 C   0  0  0  0  0  0  0  0  0  0  0  0
   -0.9823   -0.9823    0.0000 O   0  0  0  0  0  0  0  0  0  0  0  0
    0.0000   -0.9823    0.0000 P   0  0  3  0  0  0  0  0  0  0  0  0
    0.0000   -1.9647    0.0000 O   0  0  0  0  0  0  0  0  0  0  0  0
    0.9823   -0.9823    0.0000 O   0  0  0  0  0  0  0  0  0  0  0  0
    0.0000    0.0000    0.0000 O   0  0  0  0  0  0  0  0  0  0  0  0
    0.8507    0.4912    0.0000 C   0  0  0  0  0  0  0  0  0  0  0  0
    0.8507    1.4735    0.0000 C   0  0  0  0  0  0  0  0  0  0  0  0
    0.0000    1.9647    0.0000 C   0  0  0  0  0  0  0  0  0  0  0  0
    0.0000    2.9470    0.0000 C   0  0  0  0  0  0  0  0  0  0  0  0
    0.8507    3.4382    0.0000 C   0  0  0  0  0  0  0  0  0  0  0  0
    1.7015    2.9470    0.0000 C   0  0  0  0  0  0  0  0  0  0  0  0
    1.7015    1.9647    0.0000 C   0  0  0  0  0  0  0  0  0  0  0  0
   -3.9293   -0.9823    0.0000 C   0  0  0  0  0  0  0  0  0  0  0  0
   -2.9470   -0.9823    0.0000 O   0  0  0  0  0  0  0  0  0  0  0  0
   -4.4205   -0.1316    0.0000 O   0  0  0  0  0  0  0  0  0  0  0  0
   -6.8763   -2.6838    0.0000 O   0  0  0  0  0  0  0  0  0  0  0  0
   -7.1799   -3.6180    0.0000 C   0  0  0  0  0  0  0  0  0  0  0  0
   -8.0306   -4.1092    0.0000 C   0  0  0  0  0  0  0  0  0  0  0  0
   -8.8814   -3.6181    0.0000 C   0  0  0  0  0  0  0  0  0  0  0  0
   -8.8816   -2.6353    0.0000 C   0  0  0  0  0  0  0  0  0  0  0  0
   -9.7323   -2.1442    0.0000 C   0  0  0  0  0  0  0  0  0  0  0  0
  -10.5836   -2.6357    0.0000 C   0  0  0  0  0  0  0  0  0  0  0  0
  -10.5837   -3.6180    0.0000 C   0  0  0  0  0  0  0  0  0  0  0  0
   -9.7327   -4.1096    0.0000 C   0  0  0  0  0  0  0  0  0  0  0  0
   -8.8817   -5.5835    0.0000 C   0  0  0  0  0  0  0  0  0  0  0  0
   -8.8815   -6.5662    0.0000 C   0  0  0  0  0  0  0  0  0  0  0  0
   -8.0307   -7.0574    0.0000 C   0  0  0  0  0  0  0  0  0  0  0  0
   -7.1795   -6.5659    0.0000 C   0  0  0  0  0  0  0  0  0  0  0  0
   -7.1794   -5.5836    0.0000 C   0  0  0  0  0  0  0  0  0  0  0  0
   -8.0304   -5.0920    0.0000 C   0  0  0  0  0  0  0  0  0  0  0  0
  1  2  2  0  0  0  0
  2  3  1  0  0  0  0
  2 24  1  0  0  0  0
  3  4  1  0  0  0  0
  4  5  1  6  0  0  0
  4 21  1  0  0  0  0
  5  6  1  0  0  0  0
  6  7  1  0  0  0  0
  7  8  1  0  0  0  0
  8  9  1  0  0  0  0
  9 10  1  0  0  0  0
 10 11  2  0  0  0  0
 10 12  1  0  0  0  0
 10 13  1  0  0  0  0
 13 14  1  0  0  0  0
 14 15  1  0  0  0  0
 15 20  2  0  0  0  0
 15 16  1  0  0  0  0
 16 17  2  0  0  0  0
 17 18  1  0  0  0  0
 18 19  2  0  0  0  0
 19 20  1  0  0  0  0
 21 22  2  0  0  0  0
 21 23  1  0  0  0  0
 24 25  1  0  0  0  0
 25 26  1  0  0  0  0
 26 38  1  0  0  0  0
 26 27  1  0  0  0  0
 27 32  2  0  0  0  0
 27 28  1  0  0  0  0
 28 29  2  0  0  0  0
 29 30  1  0  0  0  0
 30 31  2  0  0  0  0
 31 32  1  0  0  0  0
 32 33  1  0  0  0  0
 33 38  2  0  0  0  0
 33 34  1  0  0  0  0
 34 35  2  0  0  0  0
 35 36  1  0  0  0  0
 36 37  2  0  0  0  0
 37 38  1  0  0  0  0
M  END
> <NMREDATA_VERSION>
1.1

> <NMREDATA_LEVEL>
0

> <NMREDATA_SOLVENT>
CD3CN

> <NMREDATA_FORMULA>
C28H30NO8P

> <NMREDATA_SMILES>
O=C(N[C@H](C(=O)O)CCCCOP(=O)(OCc1ccccc1)O)OCC1c2ccccc2-c2c1cccc2

> <NMREDATA_ASSIGNMENT>
P10, 3.40, 10

> <NMREDATA_1D_31P>
Larmor=243
3.40, L=P10

$$$$
