
 OpenBabel06112616442D

 38 42  0  0  0  0  0  0  0  0999 V2000
    6.8979    0.4884    0.0000 C   0  0  0  0  0  0  0  0  0  0  0  0
    6.0521    0.9767    0.0000 C   0  0  0  0  0  0  0  0  0  0  0  0
    5.2062    0.4884    0.0000 C   0  0  0  0  0  0  0  0  0  0  0  0
    4.3603    0.9767    0.0000 C   0  0  0  0  0  0  0  0  0  0  0  0
    4.3603    1.9535    0.0000 C   0  0  0  0  0  0  0  0  0  0  0  0
    3.5144    2.4419    0.0000 C   0  0  0  0  0  0  0  0  0  0  0  0
    3.5144    3.4186    0.0000 O   0  0  0  0  0  0  0  0  0  0  0  0
    2.6685    1.9535    0.0000 O   0  0  0  0  0  0  0  0  0  0  0  0
    1.8226    2.4419    0.0000 C   0  0  0  0  0  0  0  0  0  0  0  0
    1.8226    3.4186    0.0000 C   0  0  0  0  0  0  0  0  0  0  0  0
    0.9767    3.9070    0.0000 C   0  0  0  0  0  0  0  0  0  0  0  0
    0.1309    3.4186    0.0000 C   0  0  0  0  0  0  0  0  0  0  0  0
    0.1309    2.4419    0.0000 C   0  0  0  0  0  0  0  0  0  0  0  0
   -0.7150    1.9535    0.0000 C   0  0  0  0  0  0  0  0  0  0  0  0
    0.9767    1.9535    0.0000 C   0  0  0  0  0  0  0  0  0  0  0  0
    0.9767    0.0000    0.0000 P   0  0  1  0  0  0  0  0  0  0  0  0
    1.9535    0.0000    0.0000 O   0  0  0  0  0  0  0  0  0  0  0  0
    0.9767   -0.9767    0.0000 N   0  0  0  0  0  0  0  0  0  0  0  0
    1.8226   -1.4651    0.0000 C   0  0  0  0  0  0  0  0  0  0  0  0
    2.6685   -0.9767    0.0000 C   0  0  0  0  0  0  0  0  0  0  0  0
    3.5144   -1.4651    0.0000 C   0  0  0  0  0  0  0  0  0  0  0  0
    3.5144   -2.4419    0.0000 C   0  0  0  0  0  0  0  0  0  0  0  0
    2.6685   -2.9302    0.0000 C   0  0  0  0  0  0  0  0  0  0  0  0
    2.6685   -3.9070    0.0000 C   0  0  0  0  0  0  0  0  0  0  0  0
    1.8226   -4.3953    0.0000 C   0  0  0  0  0  0  0  0  0  0  0  0
    0.9767   -3.9070    0.0000 C   0  0  0  0  0  0  0  0  0  0  0  0
    0.9767   -2.9302    0.0000 N   0  0  0  0  0  0  0  0  0  0  0  0
    1.8226   -2.4419    0.0000 C   0  0  0  0  0  0  0  0  0  0  0  0
    0.0000    0.0000    0.0000 C   0  0  0  0  0  0  0  0  0  0  0  0
   -0.4884    0.8459    0.0000 C   0  0  0  0  0  0  0  0  0  0  0  0
   -1.4651    0.8459    0.0000 C   0  0  0  0  0  0  0  0  0  0  0  0
   -1.9535    0.0000    0.0000 C   0  0  0  0  0  0  0  0  0  0  0  0
   -1.4651   -0.8459    0.0000 C   0  0  0  0  0  0  0  0  0  0  0  0
   -0.4884   -0.8459    0.0000 C   0  0  0  0  0  0  0  0  0  0  0  0
    0.0000   -1.6918    0.0000 C   0  0  0  0  0  0  0  0  0  0  0  0
    5.2062    2.4419    0.0000 C   0  0  0  0  0  0  0  0  0  0  0  0
    5.2062    3.4186    0.0000 C   0  0  0  0  0  0  0  0  0  0  0  0
    6.0521    1.9535    0.0000 C   0  0  0  0  0  0  0  0  0  0  0  0
  1  2  1  0  0  0  0
  2 38  2  0  0  0  0
  2  3  1  0  0  0  0
  3  4  2  0  0  0  0
  4  5  1  0  0  0  0
  5  6  1  0  0  0  0
  5 36  2  0  0  0  0
  6  7  2  0  0  0  0
  6  8  1  0  0  0  0
  8  9  1  0  0  0  0
  9 15  2  0  0  0  0
  9 10  1  0  0  0  0
 10 11  2  0  0  0  0
 11 12  1  0  0  0  0
 12 13  2  0  0  0  0
 13 14  1  0  0  0  0
 13 15  1  0  0  0  0
 15 16  1  0  0  0  0
 16 17  2  6  0  0  0
 16 18  1  0  0  0  0
 16 29  1  0  0  0  0
 18 19  1  0  0  0  0
 19 28  2  0  0  0  0
 19 20  1  0  0  0  0
 20 21  2  0  0  0  0
 21 22  1  0  0  0  0
 22 23  2  0  0  0  0
 23 28  1  0  0  0  0
 23 24  1  0  0  0  0
 24 25  2  0  0  0  0
 25 26  1  0  0  0  0
 26 27  2  0  0  0  0
 27 28  1  0  0  0  0
 29 34  2  0  0  0  0
 29 30  1  0  0  0  0
 30 31  2  0  0  0  0
 31 32  1  0  0  0  0
 32 33  2  0  0  0  0
 33 34  1  0  0  0  0
 34 35  1  0  0  0  0
 36 37  1  0  0  0  0
 36 38  1  0  0  0  0
M  END
> <NMREDATA_VERSION>
1.1

> <NMREDATA_LEVEL>
0

> <NMREDATA_SOLVENT>
CDCl3

> <NMREDATA_FORMULA>
C32H29N2O3P

> <NMREDATA_SMILES>
Cc1ccc(c(c1)C)C(=O)Oc1cccc(c1[P@](=O)(c1ccccc1C)Nc1cccc2c1nccc2)C

> <NMREDATA_ASSIGNMENT>
P16, 22.56, 16

> <NMREDATA_1D_31P>
Larmor=162
22.56, L=P16

$$$$
