
 OpenBabel06112616472D

 74 85  0  0  1  0  0  0  0  0999 V2000
    0.8271   -0.4775    0.0000 C   0  0  0  0  0  0  0  0  0  0  0  0
    0.8271   -1.4326    0.0000 C   0  0  0  0  0  0  0  0  0  0  0  0
    0.0000   -1.9101    0.0000 C   0  0  0  0  0  0  0  0  0  0  0  0
   -0.8271   -1.4326    0.0000 C   0  0  0  0  0  0  0  0  0  0  0  0
   -2.4813   -2.3876    0.0000 C   0  0  0  0  0  0  0  0  0  0  0  0
   -2.4813   -1.4326    0.0000 C   0  0  0  0  0  0  0  0  0  0  0  0
   -3.3084   -0.9551    0.0000 C   0  0  0  0  0  0  0  0  0  0  0  0
   -3.3084    0.0000    0.0000 C   0  0  0  0  0  0  0  0  0  0  0  0
   -2.4813    0.4775    0.0000 C   0  0  0  0  0  0  0  0  0  0  0  0
   -1.6542    0.0000    0.0000 C   0  0  0  0  0  0  0  0  0  0  0  0
   -1.6542   -0.9551    0.0000 C   0  0  0  0  0  0  0  0  0  0  0  0
   -1.9433   -3.1767    0.0000 O   0  0  0  0  0  0  0  0  0  0  0  0
   -2.2248   -4.0894    0.0000 P   0  0  3  0  0  0  0  0  0  0  0  0
   -1.5247   -4.7390    0.0000 C   0  0  0  0  0  0  0  0  0  0  0  0
   -0.6121   -4.4575    0.0000 C   0  0  0  0  0  0  0  0  0  0  0  0
    0.0880   -5.1071    0.0000 P   0  0  3  0  0  0  0  0  0  0  0  0
    0.9771   -4.7581    0.0000 O   0  0  0  0  0  0  0  0  0  0  0  0
    1.8042   -5.2357    0.0000 C   0  0  0  0  0  0  0  0  0  0  0  0
    3.7089   -5.0929    0.0000 C   0  0  0  0  0  0  0  0  0  0  0  0
    4.1233   -4.2325    0.0000 C   0  0  0  0  0  0  0  0  0  0  0  0
    5.0757   -4.1611    0.0000 C   0  0  0  0  0  0  0  0  0  0  0  0
    5.6137   -4.9502    0.0000 C   0  0  0  0  0  0  0  0  0  0  0  0
    5.1993   -5.8107    0.0000 C   0  0  0  0  0  0  0  0  0  0  0  0
    4.2469   -5.8820    0.0000 C   0  0  0  0  0  0  0  0  0  0  0  0
    2.2185   -4.3752    0.0000 C   0  0  0  0  0  0  0  0  0  0  0  0
    1.6805   -3.5861    0.0000 C   0  0  0  0  0  0  0  0  0  0  0  0
    2.0949   -2.7256    0.0000 C   0  0  0  0  0  0  0  0  0  0  0  0
    3.0473   -2.6542    0.0000 C   0  0  0  0  0  0  0  0  0  0  0  0
    3.5853   -3.4434    0.0000 C   0  0  0  0  0  0  0  0  0  0  0  0
    3.1709   -4.3038    0.0000 C   0  0  0  0  0  0  0  0  0  0  0  0
    1.9465   -6.1801    0.0000 C   0  0  1  0  0  0  0  0  0  0  0  0
    2.8131   -6.5815    0.0000 O   0  0  0  0  0  0  0  0  0  0  0  0
    2.6991   -7.5298    0.0000 C   0  0  0  0  0  0  0  0  0  0  0  0
    2.9806   -8.4424    0.0000 C   0  0  0  0  0  0  0  0  0  0  0  0
    3.6302   -7.7423    0.0000 C   0  0  0  0  0  0  0  0  0  0  0  0
    1.7620   -7.7143    0.0000 O   0  0  0  0  0  0  0  0  0  0  0  0
    1.2969   -6.8802    0.0000 C   0  0  1  0  0  0  0  0  0  0  0  0
    0.3445   -6.8088    0.0000 C   0  0  0  0  0  0  0  0  0  0  0  0
   -1.3097   -7.7639    0.0000 C   0  0  0  0  0  0  0  0  0  0  0  0
   -1.3097   -8.7189    0.0000 C   0  0  0  0  0  0  0  0  0  0  0  0
   -2.1368   -9.1964    0.0000 C   0  0  0  0  0  0  0  0  0  0  0  0
   -2.9639   -8.7189    0.0000 C   0  0  0  0  0  0  0  0  0  0  0  0
   -2.9639   -7.7639    0.0000 C   0  0  0  0  0  0  0  0  0  0  0  0
   -2.1368   -7.2863    0.0000 C   0  0  0  0  0  0  0  0  0  0  0  0
    0.3445   -7.7639    0.0000 C   0  0  0  0  0  0  0  0  0  0  0  0
    1.1716   -8.2414    0.0000 C   0  0  0  0  0  0  0  0  0  0  0  0
    1.1716   -9.1964    0.0000 C   0  0  0  0  0  0  0  0  0  0  0  0
    0.3445   -9.6740    0.0000 C   0  0  0  0  0  0  0  0  0  0  0  0
   -0.4826   -9.1964    0.0000 C   0  0  0  0  0  0  0  0  0  0  0  0
   -0.4826   -8.2414    0.0000 C   0  0  0  0  0  0  0  0  0  0  0  0
   -0.1935   -6.0197    0.0000 O   0  0  0  0  0  0  0  0  0  0  0  0
   -3.1139   -4.4383    0.0000 O   0  0  0  0  0  0  0  0  0  0  0  0
   -3.9410   -3.9608    0.0000 C   0  0  0  0  0  0  0  0  0  0  0  0
   -5.8457   -4.1035    0.0000 C   0  0  0  0  0  0  0  0  0  0  0  0
   -6.2601   -4.9640    0.0000 C   0  0  0  0  0  0  0  0  0  0  0  0
   -7.2125   -5.0354    0.0000 C   0  0  0  0  0  0  0  0  0  0  0  0
   -7.7505   -4.2462    0.0000 C   0  0  0  0  0  0  0  0  0  0  0  0
   -7.3361   -3.3858    0.0000 C   0  0  0  0  0  0  0  0  0  0  0  0
   -6.3837   -3.3144    0.0000 C   0  0  0  0  0  0  0  0  0  0  0  0
   -4.3553   -4.8212    0.0000 C   0  0  0  0  0  0  0  0  0  0  0  0
   -3.8173   -5.6103    0.0000 C   0  0  0  0  0  0  0  0  0  0  0  0
   -4.2317   -6.4708    0.0000 C   0  0  0  0  0  0  0  0  0  0  0  0
   -5.1841   -6.5422    0.0000 C   0  0  0  0  0  0  0  0  0  0  0  0
   -5.7221   -5.7531    0.0000 C   0  0  0  0  0  0  0  0  0  0  0  0
   -5.3077   -4.8926    0.0000 C   0  0  0  0  0  0  0  0  0  0  0  0
   -4.0833   -3.0164    0.0000 C   0  0  2  0  0  0  0  0  0  0  0  0
   -4.9499   -2.6149    0.0000 O   0  0  0  0  0  0  0  0  0  0  0  0
   -4.8358   -1.6667    0.0000 C   0  0  0  0  0  0  0  0  0  0  0  0
   -5.1174   -0.7541    0.0000 C   0  0  0  0  0  0  0  0  0  0  0  0
   -5.7670   -1.4542    0.0000 C   0  0  0  0  0  0  0  0  0  0  0  0
   -3.8988   -1.4821    0.0000 O   0  0  0  0  0  0  0  0  0  0  0  0
   -3.4337   -2.3163    0.0000 C   0  0  1  0  0  0  0  0  0  0  0  0
   -0.8271   -0.4775    0.0000 C   0  0  0  0  0  0  0  0  0  0  0  0
    0.0000    0.0000    0.0000 C   0  0  0  0  0  0  0  0  0  0  0  0
  1 74  2  0  0  0  0
  1  2  1  0  0  0  0
  2  3  2  0  0  0  0
  3  4  1  0  0  0  0
  4  5  1  0  0  0  0
  4 73  2  0  0  0  0
  5 72  1  0  0  0  0
  5  6  1  0  0  0  0
  5 12  1  0  0  0  0
  6 11  2  0  0  0  0
  6  7  1  0  0  0  0
  7  8  2  0  0  0  0
  8  9  1  0  0  0  0
  9 10  2  0  0  0  0
 10 11  1  0  0  0  0
 12 13  1  0  0  0  0
 13 14  1  0  0  0  0
 13 52  1  0  0  0  0
 14 15  1  0  0  0  0
 15 16  1  0  0  0  0
 16 51  1  0  0  0  0
 16 17  1  0  0  0  0
 17 18  1  0  0  0  0
 18 19  1  0  0  0  0
 18 25  1  0  0  0  0
 18 31  1  0  0  0  0
 19 24  2  0  0  0  0
 19 20  1  0  0  0  0
 20 21  2  0  0  0  0
 21 22  1  0  0  0  0
 22 23  2  0  0  0  0
 23 24  1  0  0  0  0
 25 30  2  0  0  0  0
 25 26  1  0  0  0  0
 26 27  2  0  0  0  0
 27 28  1  0  0  0  0
 28 29  2  0  0  0  0
 29 30  1  0  0  0  0
 31 32  1  1  0  0  0
 31 37  1  0  0  0  0
 32 33  1  0  0  0  0
 33 34  1  0  0  0  0
 33 35  1  0  0  0  0
 33 36  1  0  0  0  0
 37 36  1  1  0  0  0
 37 38  1  0  0  0  0
 38 39  1  0  0  0  0
 38 45  1  0  0  0  0
 38 51  1  0  0  0  0
 39 44  2  0  0  0  0
 39 40  1  0  0  0  0
 40 41  2  0  0  0  0
 41 42  1  0  0  0  0
 42 43  2  0  0  0  0
 43 44  1  0  0  0  0
 45 50  2  0  0  0  0
 45 46  1  0  0  0  0
 46 47  2  0  0  0  0
 47 48  1  0  0  0  0
 48 49  2  0  0  0  0
 49 50  1  0  0  0  0
 52 53  1  0  0  0  0
 53 54  1  0  0  0  0
 53 60  1  0  0  0  0
 53 66  1  0  0  0  0
 54 59  2  0  0  0  0
 54 55  1  0  0  0  0
 55 56  2  0  0  0  0
 56 57  1  0  0  0  0
 57 58  2  0  0  0  0
 58 59  1  0  0  0  0
 60 65  2  0  0  0  0
 60 61  1  0  0  0  0
 61 62  2  0  0  0  0
 62 63  1  0  0  0  0
 63 64  2  0  0  0  0
 64 65  1  0  0  0  0
 66 67  1  6  0  0  0
 66 72  1  0  0  0  0
 67 68  1  0  0  0  0
 68 69  1  0  0  0  0
 68 70  1  0  0  0  0
 68 71  1  0  0  0  0
 72 71  1  1  0  0  0
 73 74  1  0  0  0  0
M  END
> <NMREDATA_VERSION>
1.1

> <NMREDATA_LEVEL>
0

> <NMREDATA_FORMULA>
C64H60O8P2

> <NMREDATA_SMILES>
CC1(C)O[C@@H]2[C@@H](O1)C(OP(OC2(c1ccccc1)c1ccccc1)CCP1OC([C@@H]2[C@H](C(O1)(c1ccccc1)c1ccccc1)OC(O2)(C)C)(c1ccccc1)c1ccccc1)(c1ccccc1)c1ccccc1

> <NMREDATA_ASSIGNMENT>
P13, 175.10, 13
P16, 175.10, 16

> <NMREDATA_1D_31P>
Larmor=202.574
175.10, L=P13
175.10, L=P16

$$$$
