
 OpenBabel06112616462D

 45 50  0  0  0  0  0  0  0  0999 V2000
    5.1887   -0.1264    0.0000 C   0  0  0  0  0  0  0  0  0  0  0  0
    4.2453   -0.1264    0.0000 C   0  0  0  0  0  0  0  0  0  0  0  0
    3.7736    0.6906    0.0000 C   0  0  0  0  0  0  0  0  0  0  0  0
    4.2453    1.5076    0.0000 C   0  0  0  0  0  0  0  0  0  0  0  0
    3.7736    2.3246    0.0000 C   0  0  0  0  0  0  0  0  0  0  0  0
    4.2453    3.1416    0.0000 C   0  0  0  0  0  0  0  0  0  0  0  0
    5.1887    3.1416    0.0000 C   0  0  0  0  0  0  0  0  0  0  0  0
    5.6604    3.9586    0.0000 C   0  0  0  0  0  0  0  0  0  0  0  0
    5.6604    2.3246    0.0000 C   0  0  0  0  0  0  0  0  0  0  0  0
    5.1887    1.5076    0.0000 C   0  0  0  0  0  0  0  0  0  0  0  0
    2.8302    0.6906    0.0000 C   0  0  0  0  0  0  0  0  0  0  0  0
    2.3585   -0.1264    0.0000 O   0  0  0  0  0  0  0  0  0  0  0  0
    3.7736   -0.9434    0.0000 C   0  0  0  0  0  0  0  0  0  0  0  0
    4.2453   -1.7604    0.0000 C   0  0  0  0  0  0  0  0  0  0  0  0
    5.1887   -1.7604    0.0000 C   0  0  0  0  0  0  0  0  0  0  0  0
    5.6604   -2.5774    0.0000 C   0  0  0  0  0  0  0  0  0  0  0  0
    5.1887   -3.3944    0.0000 O   0  0  0  0  0  0  0  0  0  0  0  0
    6.6038   -2.5774    0.0000 O   0  0  0  0  0  0  0  0  0  0  0  0
    7.0755   -1.7604    0.0000 C   0  0  0  0  0  0  0  0  0  0  0  0
    6.6038   -0.9434    0.0000 C   0  0  0  0  0  0  0  0  0  0  0  0
    7.0755   -0.1264    0.0000 C   0  0  0  0  0  0  0  0  0  0  0  0
    8.0189   -0.1264    0.0000 C   0  0  0  0  0  0  0  0  0  0  0  0
    8.4906   -0.9434    0.0000 C   0  0  0  0  0  0  0  0  0  0  0  0
    8.0189   -1.7604    0.0000 C   0  0  0  0  0  0  0  0  0  0  0  0
    5.6604   -0.9434    0.0000 C   0  0  0  0  0  0  0  0  0  0  0  0
    3.7736   -2.5774    0.0000 O   0  0  0  0  0  0  0  0  0  0  0  0
    0.0000   -0.9434    0.0000 P   0  0  0  0  0  0  0  0  0  0  0  0
    0.0000   -1.8868    0.0000 C   0  0  0  0  0  0  0  0  0  0  0  0
   -0.8170   -2.3585    0.0000 C   0  0  0  0  0  0  0  0  0  0  0  0
   -0.8170   -3.3019    0.0000 C   0  0  0  0  0  0  0  0  0  0  0  0
    0.0000   -3.7736    0.0000 C   0  0  0  0  0  0  0  0  0  0  0  0
    0.8170   -3.3019    0.0000 C   0  0  0  0  0  0  0  0  0  0  0  0
    0.8170   -2.3585    0.0000 C   0  0  0  0  0  0  0  0  0  0  0  0
   -0.9434   -0.9434    0.0000 C   0  0  0  0  0  0  0  0  0  0  0  0
   -1.4151   -0.1264    0.0000 C   0  0  0  0  0  0  0  0  0  0  0  0
   -2.3585   -0.1264    0.0000 C   0  0  0  0  0  0  0  0  0  0  0  0
   -2.8302   -0.9434    0.0000 C   0  0  0  0  0  0  0  0  0  0  0  0
   -2.3585   -1.7604    0.0000 C   0  0  0  0  0  0  0  0  0  0  0  0
   -1.4151   -1.7604    0.0000 C   0  0  0  0  0  0  0  0  0  0  0  0
    0.0000    0.0000    0.0000 C   0  0  0  0  0  0  0  0  0  0  0  0
    0.8170    0.4717    0.0000 C   0  0  0  0  0  0  0  0  0  0  0  0
    0.8170    1.4151    0.0000 C   0  0  0  0  0  0  0  0  0  0  0  0
    0.0000    1.8868    0.0000 C   0  0  0  0  0  0  0  0  0  0  0  0
   -0.8170    1.4151    0.0000 C   0  0  0  0  0  0  0  0  0  0  0  0
   -0.8170    0.4717    0.0000 C   0  0  0  0  0  0  0  0  0  0  0  0
  1  2  1  0  0  0  0
  2  3  2  0  0  0  0
  2 13  1  0  0  0  0
  3  4  1  0  0  0  0
  3 11  1  0  0  0  0
  4 10  2  0  0  0  0
  4  5  1  0  0  0  0
  5  6  2  0  0  0  0
  6  7  1  0  0  0  0
  7  8  1  0  0  0  0
  7  9  2  0  0  0  0
  9 10  1  0  0  0  0
 11 12  2  0  0  0  0
 13 14  1  0  0  0  0
 13 27  2  0  0  0  0
 14 15  1  0  0  0  0
 14 26  2  0  0  0  0
 15 25  2  0  0  0  0
 15 16  1  0  0  0  0
 16 17  2  0  0  0  0
 16 18  1  0  0  0  0
 18 19  1  0  0  0  0
 19 24  2  0  0  0  0
 19 20  1  0  0  0  0
 20 21  2  0  0  0  0
 20 25  1  0  0  0  0
 21 22  1  0  0  0  0
 22 23  2  0  0  0  0
 23 24  1  0  0  0  0
 27 28  1  0  0  0  0
 27 34  1  0  0  0  0
 27 40  1  0  0  0  0
 28 33  2  0  0  0  0
 28 29  1  0  0  0  0
 29 30  2  0  0  0  0
 30 31  1  0  0  0  0
 31 32  2  0  0  0  0
 32 33  1  0  0  0  0
 34 39  2  0  0  0  0
 34 35  1  0  0  0  0
 35 36  2  0  0  0  0
 36 37  1  0  0  0  0
 37 38  2  0  0  0  0
 38 39  1  0  0  0  0
 40 45  2  0  0  0  0
 40 41  1  0  0  0  0
 41 42  2  0  0  0  0
 42 43  1  0  0  0  0
 43 44  2  0  0  0  0
 44 45  1  0  0  0  0
M  END
> <NMREDATA_VERSION>
1.1

> <NMREDATA_LEVEL>
0

> <NMREDATA_SOLVENT>
CDCl3

> <NMREDATA_FORMULA>
C40H31O4P

> <NMREDATA_SMILES>
O=C/C(=C(\C(=P(c1ccccc1)(c1ccccc1)c1ccccc1)C(=O)c1cc2ccccc2oc1=O)/C)/c1ccc(cc1)C

> <NMREDATA_ASSIGNMENT>
P27, 13.90, 27

> <NMREDATA_1D_31P>
Larmor=162
13.90, L=P27

$$$$
