
 OpenBabel06112616472D

 34 37  0  0  0  0  0  0  0  0999 V2000
   -5.7722    4.8684    0.0000 C   0  0  0  0  0  0  0  0  0  0  0  0
   -6.6154    5.3553    0.0000 N   0  0  0  0  0  0  0  0  0  0  0  0
   -4.9290    4.3816    0.0000 C   0  0  0  0  0  0  0  0  0  0  0  0
   -4.0857    4.8684    0.0000 C   0  0  0  0  0  0  0  0  0  0  0  0
   -3.2425    4.3816    0.0000 C   0  0  0  0  0  0  0  0  0  0  0  0
   -3.2425    3.4079    0.0000 C   0  0  0  0  0  0  0  0  0  0  0  0
   -2.3993    2.9211    0.0000 C   0  0  0  0  0  0  0  0  0  0  0  0
   -2.3993    1.9474    0.0000 N   0  0  0  0  0  0  0  0  0  0  0  0
   -1.5560    1.4605    0.0000 N   0  0  0  0  0  0  0  0  0  0  0  0
   -0.7128    1.9474    0.0000 C   0  0  0  0  0  0  0  0  0  0  0  0
    0.9737    0.9737    0.0000 N   0  0  0  0  0  0  0  0  0  0  0  0
    0.9737    0.0000    0.0000 P   0  0  0  0  0  0  0  0  0  0  0  0
    1.9474    0.0000    0.0000 C   0  0  0  0  0  0  0  0  0  0  0  0
    2.4342   -0.8432    0.0000 C   0  0  0  0  0  0  0  0  0  0  0  0
    3.4079   -0.8432    0.0000 C   0  0  0  0  0  0  0  0  0  0  0  0
    3.8947    0.0000    0.0000 C   0  0  0  0  0  0  0  0  0  0  0  0
    3.4079    0.8432    0.0000 C   0  0  0  0  0  0  0  0  0  0  0  0
    2.4342    0.8432    0.0000 C   0  0  0  0  0  0  0  0  0  0  0  0
    0.9737   -0.9737    0.0000 C   0  0  0  0  0  0  0  0  0  0  0  0
    0.1304   -1.4605    0.0000 C   0  0  0  0  0  0  0  0  0  0  0  0
    0.1304   -2.4342    0.0000 C   0  0  0  0  0  0  0  0  0  0  0  0
    0.9737   -2.9211    0.0000 C   0  0  0  0  0  0  0  0  0  0  0  0
    1.8169   -2.4342    0.0000 C   0  0  0  0  0  0  0  0  0  0  0  0
    1.8169   -1.4605    0.0000 C   0  0  0  0  0  0  0  0  0  0  0  0
    0.0000    0.0000    0.0000 C   0  0  0  0  0  0  0  0  0  0  0  0
   -0.4868    0.8432    0.0000 C   0  0  0  0  0  0  0  0  0  0  0  0
   -1.4605    0.8432    0.0000 C   0  0  0  0  0  0  0  0  0  0  0  0
   -1.9474    0.0000    0.0000 C   0  0  0  0  0  0  0  0  0  0  0  0
   -1.4605   -0.8432    0.0000 C   0  0  0  0  0  0  0  0  0  0  0  0
   -0.4868   -0.8432    0.0000 C   0  0  0  0  0  0  0  0  0  0  0  0
   -0.7128    2.9211    0.0000 C   0  0  0  0  0  0  0  0  0  0  0  0
   -0.7128    3.8947    0.0000 N   0  0  0  0  0  0  0  0  0  0  0  0
   -4.0857    2.9211    0.0000 C   0  0  0  0  0  0  0  0  0  0  0  0
   -4.9290    3.4079    0.0000 C   0  0  0  0  0  0  0  0  0  0  0  0
  1  2  3  0  0  0  0
  1  3  1  0  0  0  0
  3 34  2  0  0  0  0
  3  4  1  0  0  0  0
  4  5  2  0  0  0  0
  5  6  1  0  0  0  0
  6  7  1  0  0  0  0
  6 33  2  0  0  0  0
  7  8  2  0  0  0  0
  8  9  1  0  0  0  0
  9 10  2  0  0  0  0
 10 11  1  0  0  0  0
 10 31  1  0  0  0  0
 11 12  2  0  0  0  0
 12 13  1  0  0  0  0
 12 19  1  0  0  0  0
 12 25  1  0  0  0  0
 13 18  2  0  0  0  0
 13 14  1  0  0  0  0
 14 15  2  0  0  0  0
 15 16  1  0  0  0  0
 16 17  2  0  0  0  0
 17 18  1  0  0  0  0
 19 24  2  0  0  0  0
 19 20  1  0  0  0  0
 20 21  2  0  0  0  0
 21 22  1  0  0  0  0
 22 23  2  0  0  0  0
 23 24  1  0  0  0  0
 25 30  2  0  0  0  0
 25 26  1  0  0  0  0
 26 27  2  0  0  0  0
 27 28  1  0  0  0  0
 28 29  2  0  0  0  0
 29 30  1  0  0  0  0
 31 32  3  0  0  0  0
 33 34  1  0  0  0  0
M  END
> <NMREDATA_VERSION>
1.1

> <NMREDATA_LEVEL>
0

> <NMREDATA_SOLVENT>
CDCl3

> <NMREDATA_FORMULA>
C28H20N5P

> <NMREDATA_SMILES>
N#C/C(=N\N=C\c1ccc(cc1)C#N)/N=P(c1ccccc1)(c1ccccc1)c1ccccc1

> <NMREDATA_ASSIGNMENT>
P12, 19.00, 12

> <NMREDATA_1D_31P>
Larmor=243
19.00, L=P12

$$$$
