
 OpenBabel06112616472D

 14 14  0  0  0  0  0  0  0  0999 V2000
   -2.0032    0.5909    0.0000 C    0  0  0  0  0  0  0  0  0  0  0  0
   -1.2601    1.2601    0.0000 C    0  0  0  0  0  0  0  0  0  0  0  0
   -0.9511    2.2111    0.0000 C    0  0  0  0  0  0  0  0  0  0  0  0
   -1.9292    2.0032    0.0000 C    0  0  0  0  0  0  0  0  0  0  0  0
   -0.3090    0.9511    0.0000 N    0  0  0  0  0  0  0  0  0  0  0  0
    0.5000    1.5388    0.0000 P    0  0  3  0  0  0  0  0  0  0  0  0
    0.5000    2.5388    0.0000 Br   0  0  0  0  0  0  0  0  0  0  0  0
    1.3090    0.9511    0.0000 N    0  0  0  0  0  0  0  0  0  0  0  0
    2.2601    1.2601    0.0000 C    0  0  0  0  0  0  0  0  0  0  0  0
    2.9292    2.0032    0.0000 C    0  0  0  0  0  0  0  0  0  0  0  0
    1.9511    2.2111    0.0000 C    0  0  0  0  0  0  0  0  0  0  0  0
    3.0032    0.5909    0.0000 C    0  0  0  0  0  0  0  0  0  0  0  0
    1.0000    0.0000    0.0000 C    0  0  0  0  0  0  0  0  0  0  0  0
    0.0000    0.0000    0.0000 C    0  0  0  0  0  0  0  0  0  0  0  0
  1  2  1  0  0  0  0
  2  3  1  0  0  0  0
  2  4  1  0  0  0  0
  2  5  1  0  0  0  0
  5 14  1  0  0  0  0
  5  6  1  0  0  0  0
  6  7  1  0  0  0  0
  6  8  1  0  0  0  0
  8  9  1  0  0  0  0
  8 13  1  0  0  0  0
  9 10  1  0  0  0  0
  9 11  1  0  0  0  0
  9 12  1  0  0  0  0
 13 14  2  0  0  0  0
M  END
> <NMREDATA_VERSION>
1.1

> <NMREDATA_LEVEL>
0

> <NMREDATA_SOLVENT>
CDCl3

> <NMREDATA_FORMULA>
C10H20BrN2P

> <NMREDATA_SMILES>
BrP1N(C=CN1C(C)(C)C)C(C)(C)C

> <NMREDATA_ASSIGNMENT>
P6, 186.51, 6

> <NMREDATA_1D_31P>
Larmor=162
186.51, L=P6

$$$$
