
 OpenBabel06112616452D

 33 37  0  0  0  0  0  0  0  0999 V2000
    2.5024    0.7583    0.0000 Cl   0  0  0  0  0  0  0  0  0  0  0  0
    3.4284    1.0592    0.0000 C    0  0  0  0  0  0  0  0  0  0  0  0
    3.7293    1.9852    0.0000 C    0  0  0  0  0  0  0  0  0  0  0  0
    4.7030    1.9852    0.0000 C    0  0  0  0  0  0  0  0  0  0  0  0
    5.0039    1.0592    0.0000 C    0  0  0  0  0  0  0  0  0  0  0  0
    5.9299    0.7583    0.0000 C    0  0  0  0  0  0  0  0  0  0  0  0
    6.1324   -0.1941    0.0000 N    0  0  0  0  0  0  0  0  0  0  0  0
    7.0584   -0.4950    0.0000 C    0  0  0  0  0  0  0  0  0  0  0  0
    7.7820    0.1565    0.0000 C    0  0  0  0  0  0  0  0  0  0  0  0
    8.7080   -0.1444    0.0000 C    0  0  0  0  0  0  0  0  0  0  0  0
    8.9105   -1.0968    0.0000 C    0  0  0  0  0  0  0  0  0  0  0  0
    8.1869   -1.7483    0.0000 C    0  0  0  0  0  0  0  0  0  0  0  0
    7.2608   -1.4474    0.0000 C    0  0  0  0  0  0  0  0  0  0  0  0
    4.2162    0.4868    0.0000 N    0  0  0  0  0  0  0  0  0  0  0  0
    4.2162   -0.4868    0.0000 C    0  0  0  0  0  0  0  0  0  0  0  0
    5.0594   -0.9737    0.0000 C    0  0  0  0  0  0  0  0  0  0  0  0
    5.0594   -1.9474    0.0000 C    0  0  0  0  0  0  0  0  0  0  0  0
    4.2162   -2.4342    0.0000 C    0  0  0  0  0  0  0  0  0  0  0  0
    3.3729   -1.9474    0.0000 C    0  0  0  0  0  0  0  0  0  0  0  0
    3.3729   -0.9737    0.0000 C    0  0  0  0  0  0  0  0  0  0  0  0
    1.6865    0.0000    0.0000 P    0  0  0  0  0  0  0  0  0  0  0  0
    1.6865    0.9737    0.0000 C    0  0  0  0  0  0  0  0  0  0  0  0
    0.8432    1.4605    0.0000 C    0  0  0  0  0  0  0  0  0  0  0  0
    0.8432    2.4342    0.0000 C    0  0  0  0  0  0  0  0  0  0  0  0
    1.6865    2.9211    0.0000 C    0  0  0  0  0  0  0  0  0  0  0  0
    2.5297    2.4342    0.0000 C    0  0  0  0  0  0  0  0  0  0  0  0
    2.5297    1.4605    0.0000 C    0  0  0  0  0  0  0  0  0  0  0  0
    0.8432   -0.4868    0.0000 C    0  0  0  0  0  0  0  0  0  0  0  0
    0.8432   -1.4605    0.0000 C    0  0  0  0  0  0  0  0  0  0  0  0
    0.0000   -1.9474    0.0000 C    0  0  0  0  0  0  0  0  0  0  0  0
   -0.8432   -1.4605    0.0000 C    0  0  0  0  0  0  0  0  0  0  0  0
   -0.8432   -0.4868    0.0000 C    0  0  0  0  0  0  0  0  0  0  0  0
    0.0000    0.0000    0.0000 C    0  0  0  0  0  0  0  0  0  0  0  0
  1  2  1  0  0  0  0
  2 14  1  0  0  0  0
  2  3  2  0  0  0  0
  3  4  1  0  0  0  0
  4  5  2  0  0  0  0
  5  6  1  0  0  0  0
  5 14  1  0  0  0  0
  6  7  1  0  0  0  0
  7  8  1  0  0  0  0
  8 13  1  0  0  0  0
  8  9  1  0  0  0  0
  9 10  1  0  0  0  0
 10 11  1  0  0  0  0
 11 12  1  0  0  0  0
 12 13  1  0  0  0  0
 14 15  1  0  0  0  0
 15 20  2  0  0  0  0
 15 16  1  0  0  0  0
 16 17  2  0  0  0  0
 17 18  1  0  0  0  0
 18 19  2  0  0  0  0
 19 20  1  0  0  0  0
 20 21  1  0  0  0  0
 21 22  1  0  0  0  0
 21 28  1  0  0  0  0
 22 27  2  0  0  0  0
 22 23  1  0  0  0  0
 23 24  2  0  0  0  0
 24 25  1  0  0  0  0
 25 26  2  0  0  0  0
 26 27  1  0  0  0  0
 28 33  2  0  0  0  0
 28 29  1  0  0  0  0
 29 30  2  0  0  0  0
 30 31  1  0  0  0  0
 31 32  2  0  0  0  0
 32 33  1  0  0  0  0
M  END
> <NMREDATA_VERSION>
1.1

> <NMREDATA_LEVEL>
0

> <NMREDATA_SOLVENT>
CDCl3

> <NMREDATA_FORMULA>
C29H30ClN2P

> <NMREDATA_SMILES>
Clc1ccc(n1c1ccccc1P(c1ccccc1)c1ccccc1)CNC1CCCCC1

> <NMREDATA_ASSIGNMENT>
P21, -17.78, 21

> <NMREDATA_1D_31P>
Larmor=162
-17.78, L=P21

$$$$
