
 OpenBabel06112616442D

 29 34  0  0  0  0  0  0  0  0999 V2000
   -1.2407   -2.0766    0.0000 C   0  0  0  0  0  0  0  0  0  0  0  0
   -0.7407   -1.2106    0.0000 C   0  0  0  0  0  0  0  0  0  0  0  0
   -0.2407   -2.0766    0.0000 C   0  0  0  0  0  0  0  0  0  0  0  0
   -1.6068   -0.7106    0.0000 C   0  0  0  0  0  0  0  0  0  0  0  0
   -2.4728   -1.2106    0.0000 C   0  0  0  0  0  0  0  0  0  0  0  0
   -3.3388   -0.7106    0.0000 C   0  0  0  0  0  0  0  0  0  0  0  0
   -3.3388    0.2894    0.0000 C   0  0  0  0  0  0  0  0  0  0  0  0
   -2.4728    0.7894    0.0000 C   0  0  0  0  0  0  0  0  0  0  0  0
   -1.6068    0.2894    0.0000 C   0  0  0  0  0  0  0  0  0  0  0  0
    0.1253   -0.7106    0.0000 P   0  0  0  0  0  0  0  0  0  0  0  0
    0.6781   -1.1744    0.0000 C   0  0  0  0  0  0  0  0  0  0  0  0
    1.3996   -1.1744    0.0000 C   0  0  0  0  0  0  0  0  0  0  0  0
    1.8380   -2.0732    0.0000 C   0  0  0  0  0  0  0  0  0  0  0  0
    2.8356   -2.1430    0.0000 C   0  0  0  0  0  0  0  0  0  0  0  0
    3.3948   -1.3139    0.0000 C   0  0  0  0  0  0  0  0  0  0  0  0
    2.9564   -0.4152    0.0000 C   0  0  0  0  0  0  0  0  0  0  0  0
    1.9588   -0.3454    0.0000 C   0  0  0  0  0  0  0  0  0  0  0  0
    1.7169    0.6249    0.0000 C   0  0  0  0  0  0  0  0  0  0  0  0
    2.5650    1.1548    0.0000 C   0  0  0  0  0  0  0  0  0  0  0  0
    3.3310    0.5120    0.0000 C   0  0  0  0  0  0  0  0  0  0  0  0
    2.1611    1.1935    0.0000 C   0  0  0  0  0  0  0  0  0  0  0  0
    1.7577    1.7917    0.0000 C   0  0  0  0  0  0  0  0  0  0  0  0
    1.0640    1.5928    0.0000 C   0  0  0  0  0  0  0  0  0  0  0  0
    0.5744    1.8021    0.0000 C   0  0  0  0  0  0  0  0  0  0  0  0
    0.1055    1.5498    0.0000 C   0  0  0  0  0  0  0  0  0  0  0  0
    0.0105    1.0259    0.0000 C   0  0  0  0  0  0  0  0  0  0  0  0
    0.3608    0.6249    0.0000 C   0  0  0  0  0  0  0  0  0  0  0  0
    1.0388    0.8717    0.0000 C   0  0  0  0  0  0  0  0  0  0  0  0
    0.0000    0.0000    0.0000 C   0  0  0  0  0  0  0  0  0  0  0  0
  1  2  1  0  0  0  0
  2  3  1  0  0  0  0
  2  4  1  0  0  0  0
  2 10  1  0  0  0  0
  4  9  2  0  0  0  0
  4  5  1  0  0  0  0
  5  6  2  0  0  0  0
  6  7  1  0  0  0  0
  7  8  2  0  0  0  0
  8  9  1  0  0  0  0
 10 29  1  0  0  0  0
 10 11  1  0  0  0  0
 11 12  1  0  0  0  0
 12 17  2  0  0  0  0
 12 13  1  0  0  0  0
 13 14  2  0  0  0  0
 14 15  1  0  0  0  0
 15 16  2  0  0  0  0
 16 20  1  0  0  0  0
 16 17  1  0  0  0  0
 17 18  1  0  0  0  0
 18 28  1  0  0  0  0
 18 19  1  0  0  0  0
 18 21  1  0  0  0  0
 19 20  1  0  0  0  0
 21 22  1  0  0  0  0
 22 23  1  0  0  0  0
 23 28  2  0  0  0  0
 23 24  1  0  0  0  0
 24 25  2  0  0  0  0
 25 26  1  0  0  0  0
 26 27  2  0  0  0  0
 27 28  1  0  0  0  0
 27 29  1  0  0  0  0
M  END
> <NMREDATA_VERSION>
1.1

> <NMREDATA_LEVEL>
0

> <NMREDATA_SOLVENT>
CDCl3

> <NMREDATA_FORMULA>
C28H29P

> <NMREDATA_SMILES>
CC(P1Cc2cccc3c2C2(c4c(C1)cccc4CC2)CC3)(c1ccccc1)C

> <NMREDATA_ASSIGNMENT>
P10, 13.20, 10

> <NMREDATA_1D_31P>
Larmor=162
13.20, L=P10

$$$$
