
 OpenBabel06112616462D

 26 28  0  0  0  0  0  0  0  0999 V2000
   -4.4221   -0.9361    0.0000 C   0  0  0  0  0  0  0  0  0  0  0  0
   -3.4777   -1.1368    0.0000 C   0  0  0  0  0  0  0  0  0  0  0  0
   -3.1793   -2.0551    0.0000 C   0  0  0  0  0  0  0  0  0  0  0  0
   -2.2349   -2.2558    0.0000 C   0  0  0  0  0  0  0  0  0  0  0  0
   -1.5889   -1.5383    0.0000 N   0  0  0  0  0  0  0  0  0  0  0  0
   -0.7068   -1.9310    0.0000 C   0  0  0  0  0  0  0  0  0  0  0  0
   -0.8077   -2.8913    0.0000 C   0  0  0  0  0  0  0  0  0  0  0  0
   -1.7522   -3.0920    0.0000 N   0  0  0  0  0  0  0  0  0  0  0  0
   -0.0902   -3.5373    0.0000 C   0  0  0  0  0  0  0  0  0  0  0  0
    0.8280   -3.2390    0.0000 C   0  0  0  0  0  0  0  0  0  0  0  0
    1.5456   -3.8850    0.0000 C   0  0  0  0  0  0  0  0  0  0  0  0
    1.3448   -4.8294    0.0000 C   0  0  0  0  0  0  0  0  0  0  0  0
    0.4266   -5.1278    0.0000 C   0  0  0  0  0  0  0  0  0  0  0  0
   -0.2910   -4.4817    0.0000 C   0  0  0  0  0  0  0  0  0  0  0  0
    0.9655   -0.9655    0.0000 S   0  0  0  0  0  0  0  0  0  0  0  0
    0.9655    0.0000    0.0000 P   0  0  0  0  0  0  0  0  0  0  0  0
    1.9310    0.0000    0.0000 O   0  0  0  0  0  0  0  0  0  0  0  0
    2.4138    0.8362    0.0000 C   0  0  0  0  0  0  0  0  0  0  0  0
    1.9310    1.6723    0.0000 C   0  0  0  0  0  0  0  0  0  0  0  0
    0.9655    0.9655    0.0000 O   0  0  0  0  0  0  0  0  0  0  0  0
    0.0000    0.0000    0.0000 O   0  0  0  0  0  0  0  0  0  0  0  0
   -0.4828    0.8362    0.0000 C   0  0  0  0  0  0  0  0  0  0  0  0
    0.0000    1.6723    0.0000 C   0  0  0  0  0  0  0  0  0  0  0  0
   -1.8872   -0.6201    0.0000 C   0  0  0  0  0  0  0  0  0  0  0  0
   -1.2412    0.0975    0.0000 C   0  0  0  0  0  0  0  0  0  0  0  0
   -2.8316   -0.4193    0.0000 C   0  0  0  0  0  0  0  0  0  0  0  0
  1  2  1  0  0  0  0
  2 26  1  0  0  0  0
  2  3  2  0  0  0  0
  3  4  1  0  0  0  0
  4  8  2  0  0  0  0
  4  5  1  0  0  0  0
  5  6  1  0  0  0  0
  5 24  1  0  0  0  0
  6  7  2  0  0  0  0
  6 15  1  0  0  0  0
  7  8  1  0  0  0  0
  7  9  1  0  0  0  0
  9 14  2  0  0  0  0
  9 10  1  0  0  0  0
 10 11  2  0  0  0  0
 11 12  1  0  0  0  0
 12 13  2  0  0  0  0
 13 14  1  0  0  0  0
 15 16  1  0  0  0  0
 16 17  1  0  0  0  0
 16 20  2  0  0  0  0
 16 21  1  0  0  0  0
 17 18  1  0  0  0  0
 18 19  1  0  0  0  0
 21 22  1  0  0  0  0
 22 23  1  0  0  0  0
 24 25  1  0  0  0  0
 24 26  2  0  0  0  0
M  END
> <NMREDATA_VERSION>
1.1

> <NMREDATA_LEVEL>
0

> <NMREDATA_SOLVENT>
CDCl3

> <NMREDATA_FORMULA>
C19H23N2O3PS

> <NMREDATA_SMILES>
CCOP(=O)(Sc1c(nc2n1c(C)cc(c2)C)c1ccccc1)OCC

> <NMREDATA_ASSIGNMENT>
P16, 19.10, 16

> <NMREDATA_1D_31P>
Larmor=202
19.10, L=P16

$$$$
