
 OpenBabel06112616462D

 22 23  0  0  0  0  0  0  0  0999 V2000
   -2.0768   -3.1388    0.0000 C   0  5  0  0  0  0  0  0  0  0  0  0
   -1.0823   -3.2433    0.0000 N   0  3  0  0  0  0  0  0  0  0  0  0
   -0.0878   -3.3479    0.0000 C   0  0  0  0  0  0  0  0  0  0  0  0
    0.5000   -2.5388    0.0000 C   0  0  0  0  0  0  0  0  0  0  0  0
    0.1910   -1.5878    0.0000 C   0  0  0  0  0  0  0  0  0  0  0  0
    1.0000   -1.0000    0.0000 N   0  0  0  0  0  0  0  0  0  0  0  0
    1.0000    0.0000    0.0000 P   0  0  0  0  0  0  0  0  0  0  0  0
    2.0000    0.0000    0.0000 C   0  0  0  0  0  0  0  0  0  0  0  0
    2.8660    0.5000    0.0000 C   0  0  0  0  0  0  0  0  0  0  0  0
    2.0000    1.0000    0.0000 C   0  0  0  0  0  0  0  0  0  0  0  0
    2.5000   -0.8660    0.0000 C   0  0  0  0  0  0  0  0  0  0  0  0
    1.0000    1.0000    0.0000 C   0  0  0  0  0  0  0  0  0  0  0  0
    0.5000    1.8660    0.0000 C   0  0  0  0  0  0  0  0  0  0  0  0
    0.0000    1.0000    0.0000 C   0  0  0  0  0  0  0  0  0  0  0  0
    1.8660    1.5000    0.0000 C   0  0  0  0  0  0  0  0  0  0  0  0
    0.0000    0.0000    0.0000 O   0  0  0  0  0  0  0  0  0  0  0  0
    1.8090   -1.5878    0.0000 C   0  0  0  0  0  0  0  0  0  0  0  0
    2.7872   -1.3799    0.0000 C   0  0  0  0  0  0  0  0  0  0  0  0
    3.4563   -2.1230    0.0000 C   0  0  0  0  0  0  0  0  0  0  0  0
    3.1473   -3.0741    0.0000 C   0  0  0  0  0  0  0  0  0  0  0  0
    2.1691   -3.2820    0.0000 C   0  0  0  0  0  0  0  0  0  0  0  0
    1.5000   -2.5388    0.0000 C   0  0  0  0  0  0  0  0  0  0  0  0
  1  2  3  0  0  0  0
  2  3  1  0  0  0  0
  3  4  1  0  0  0  0
  4 22  1  0  0  0  0
  4  5  2  0  0  0  0
  5  6  1  0  0  0  0
  6  7  1  0  0  0  0
  6 17  1  0  0  0  0
  7  8  1  0  0  0  0
  7 12  1  0  0  0  0
  7 16  2  0  0  0  0
  8  9  1  0  0  0  0
  8 10  1  0  0  0  0
  8 11  1  0  0  0  0
 12 13  1  0  0  0  0
 12 14  1  0  0  0  0
 12 15  1  0  0  0  0
 17 22  2  0  0  0  0
 17 18  1  0  0  0  0
 18 19  2  0  0  0  0
 19 20  1  0  0  0  0
 20 21  2  0  0  0  0
 21 22  1  0  0  0  0
M  END
> <NMREDATA_VERSION>
1.1

> <NMREDATA_LEVEL>
0

> <NMREDATA_SOLVENT>
CDCl3

> <NMREDATA_FORMULA>
C18H25N2OP

> <NMREDATA_SMILES>
[C-]#[N+]Cc1cn(c2c1cccc2)P(=O)(C(C)(C)C)C(C)(C)C

> <NMREDATA_ASSIGNMENT>
P7, 63.83, 7

> <NMREDATA_1D_31P>
Larmor=162
63.83, L=P7

$$$$
