
 OpenBabel06112616462D

 37 38  0  0  1  0  0  0  0  0999 V2000
    4.5000   -1.8660    0.0000 O   0  0  0  0  0  0  0  0  0  0  0  0
    4.0000   -2.7321    0.0000 C   0  0  0  0  0  0  0  0  0  0  0  0
    3.0000   -2.7321    0.0000 O   0  0  0  0  0  0  0  0  0  0  0  0
    4.5000   -3.5981    0.0000 C   0  0  0  0  0  0  0  0  0  0  0  0
    4.0000   -1.0000    0.0000 C   0  0  2  0  0  0  0  0  0  0  0  0
    4.5000   -0.1340    0.0000 C   0  0  1  0  0  0  0  0  0  0  0  0
    5.5000   -0.1340    0.0000 O   0  0  0  0  0  0  0  0  0  0  0  0
    6.0000   -1.0000    0.0000 C   0  0  0  0  0  0  0  0  0  0  0  0
    5.5000   -1.8660    0.0000 O   0  0  0  0  0  0  0  0  0  0  0  0
    7.0000   -1.0000    0.0000 C   0  0  0  0  0  0  0  0  0  0  0  0
    4.0000    0.7321    0.0000 C   0  0  2  0  0  0  0  0  0  0  0  0
    4.5000    1.5981    0.0000 O   0  0  0  0  0  0  0  0  0  0  0  0
    5.5000    1.5981    0.0000 C   0  0  0  0  0  0  0  0  0  0  0  0
    6.0000    2.4641    0.0000 O   0  0  0  0  0  0  0  0  0  0  0  0
    6.0000    0.7321    0.0000 C   0  0  0  0  0  0  0  0  0  0  0  0
    3.0000    0.7321    0.0000 C   0  0  1  0  0  0  0  0  0  0  0  0
    2.5000    1.5981    0.0000 O   0  0  0  0  0  0  0  0  0  0  0  0
    3.0000    2.4641    0.0000 C   0  0  0  0  0  0  0  0  0  0  0  0
    2.5000    3.3301    0.0000 O   0  0  0  0  0  0  0  0  0  0  0  0
    4.0000    2.4641    0.0000 C   0  0  0  0  0  0  0  0  0  0  0  0
    2.5000   -0.1340    0.0000 C   0  0  2  0  0  0  0  0  0  0  0  0
    1.5000   -0.1340    0.0000 C   0  0  0  0  0  0  0  0  0  0  0  0
    1.0000   -1.0000    0.0000 O   0  0  0  0  0  0  0  0  0  0  0  0
    0.0000   -1.0000    0.0000 P   0  0  1  0  0  0  0  0  0  0  0  0
    0.0000   -2.0000    0.0000 C   0  0  0  0  0  0  0  0  0  0  0  0
   -0.8660   -2.5000    0.0000 C   0  0  0  0  0  0  0  0  0  0  0  0
   -0.8660   -3.5000    0.0000 C   0  0  0  0  0  0  0  0  0  0  0  0
    0.0000   -4.0000    0.0000 C   0  0  0  0  0  0  0  0  0  0  0  0
    0.8660   -3.5000    0.0000 C   0  0  0  0  0  0  0  0  0  0  0  0
    0.8660   -2.5000    0.0000 C   0  0  0  0  0  0  0  0  0  0  0  0
   -1.0000   -1.0000    0.0000 O   0  0  0  0  0  0  0  0  0  0  0  0
    0.0000    0.0000    0.0000 O   0  0  0  0  0  0  0  0  0  0  0  0
   -0.8660    0.5000    0.0000 C   0  0  0  0  0  0  0  0  0  0  0  0
   -1.3660    1.3660    0.0000 C   0  0  0  0  0  0  0  0  0  0  0  0
   -0.3660    1.3660    0.0000 C   0  0  0  0  0  0  0  0  0  0  0  0
   -1.7321    0.0000    0.0000 C   0  0  0  0  0  0  0  0  0  0  0  0
    3.0000   -1.0000    0.0000 O   0  0  0  0  0  0  0  0  0  0  0  0
  1  2  1  0  0  0  0
  2  3  2  0  0  0  0
  2  4  1  0  0  0  0
  5  1  1  1  0  0  0
  5  6  1  0  0  0  0
  5 37  1  0  0  0  0
  6  7  1  6  0  0  0
  6 11  1  0  0  0  0
  7  8  1  0  0  0  0
  8  9  2  0  0  0  0
  8 10  1  0  0  0  0
 11 12  1  1  0  0  0
 11 16  1  0  0  0  0
 12 13  1  0  0  0  0
 13 14  2  0  0  0  0
 13 15  1  0  0  0  0
 16 17  1  6  0  0  0
 16 21  1  0  0  0  0
 17 18  1  0  0  0  0
 18 19  2  0  0  0  0
 18 20  1  0  0  0  0
 21 22  1  1  0  0  0
 21 37  1  0  0  0  0
 22 23  1  0  0  0  0
 23 24  1  0  0  0  0
 24 25  1  0  0  0  0
 24 31  2  1  0  0  0
 24 32  1  0  0  0  0
 25 30  2  0  0  0  0
 25 26  1  0  0  0  0
 26 27  2  0  0  0  0
 27 28  1  0  0  0  0
 28 29  2  0  0  0  0
 29 30  1  0  0  0  0
 32 33  1  0  0  0  0
 33 34  1  0  0  0  0
 33 35  1  0  0  0  0
 33 36  1  0  0  0  0
M  END
> <NMREDATA_VERSION>
1.1

> <NMREDATA_LEVEL>
0

> <NMREDATA_SOLVENT>
CDCl3

> <NMREDATA_FORMULA>
C24H33O12P

> <NMREDATA_SMILES>
CC(=O)O[C@H]1O[C@@H](CO[P@](=O)(c2ccccc2)OC(C)(C)C)[C@@H]([C@H]([C@@H]1OC(=O)C)OC(=O)C)OC(=O)C

> <NMREDATA_ASSIGNMENT>
P24, 21.30, 24

> <NMREDATA_1D_31P>
Larmor=162
21.30, L=P24

$$$$
