
 OpenBabel06112616472D

 28 30  0  0  0  0  0  0  0  0999 V2000
   -4.0000   -1.0000    0.0000 O    0  0  0  0  0  0  0  0  0  0  0  0
   -4.5000   -0.1340    0.0000 C    0  0  0  0  0  0  0  0  0  0  0  0
   -3.0000   -1.0000    0.0000 C    0  0  0  0  0  0  0  0  0  0  0  0
   -2.5000   -0.1340    0.0000 C    0  0  0  0  0  0  0  0  0  0  0  0
   -1.5000   -0.1340    0.0000 C    0  0  0  0  0  0  0  0  0  0  0  0
   -1.0000   -1.0000    0.0000 C    0  0  0  0  0  0  0  0  0  0  0  0
    0.0000   -1.0000    0.0000 P    0  3  0  0  0  0  0  0  0  0  0  0
    0.0000   -2.0000    0.0000 C    0  0  0  0  0  0  0  0  0  0  0  0
   -0.8660   -2.5000    0.0000 C    0  0  0  0  0  0  0  0  0  0  0  0
   -0.8660   -3.5000    0.0000 C    0  0  0  0  0  0  0  0  0  0  0  0
   -1.7321   -4.0000    0.0000 C    0  0  0  0  0  0  0  0  0  0  0  0
   -1.7321   -5.0000    0.0000 C    0  0  0  0  0  0  0  0  0  0  0  0
   -2.5981   -5.5000    0.0000 Cl   0  0  0  0  0  0  0  0  0  0  0  0
   -0.8660   -5.5000    0.0000 C    0  0  0  0  0  0  0  0  0  0  0  0
    0.0000   -5.0000    0.0000 C    0  0  0  0  0  0  0  0  0  0  0  0
    0.0000   -4.0000    0.0000 C    0  0  0  0  0  0  0  0  0  0  0  0
    0.8660   -2.5000    0.0000 F    0  0  0  0  0  0  0  0  0  0  0  0
    1.0000   -1.0000    0.0000 C    0  0  0  0  0  0  0  0  0  0  0  0
    1.5000   -0.1340    0.0000 C    0  0  0  0  0  0  0  0  0  0  0  0
    2.5000   -0.1340    0.0000 C    0  0  0  0  0  0  0  0  0  0  0  0
    3.0000   -1.0000    0.0000 C    0  0  0  0  0  0  0  0  0  0  0  0
    4.0000   -1.0000    0.0000 O    0  0  0  0  0  0  0  0  0  0  0  0
    4.5000   -1.8660    0.0000 C    0  0  0  0  0  0  0  0  0  0  0  0
    2.5000   -1.8660    0.0000 C    0  0  0  0  0  0  0  0  0  0  0  0
    1.5000   -1.8660    0.0000 C    0  0  0  0  0  0  0  0  0  0  0  0
    0.0000    0.0000    0.0000 B    0  5  0  0  0  0  0  0  0  0  0  0
   -1.5000   -1.8660    0.0000 C    0  0  0  0  0  0  0  0  0  0  0  0
   -2.5000   -1.8660    0.0000 C    0  0  0  0  0  0  0  0  0  0  0  0
  1  2  1  0  0  0  0
  1  3  1  0  0  0  0
  3 28  2  0  0  0  0
  3  4  1  0  0  0  0
  4  5  2  0  0  0  0
  5  6  1  0  0  0  0
  6  7  1  0  0  0  0
  6 27  2  0  0  0  0
  7  8  1  0  0  0  0
  7 18  1  0  0  0  0
  7 26  1  0  0  0  0
  8  9  2  0  0  0  0
  8 17  1  0  0  0  0
  9 10  1  0  0  0  0
 10 16  2  0  0  0  0
 10 11  1  0  0  0  0
 11 12  2  0  0  0  0
 12 13  1  0  0  0  0
 12 14  1  0  0  0  0
 14 15  2  0  0  0  0
 15 16  1  0  0  0  0
 18 25  2  0  0  0  0
 18 19  1  0  0  0  0
 19 20  2  0  0  0  0
 20 21  1  0  0  0  0
 21 22  1  0  0  0  0
 21 24  2  0  0  0  0
 22 23  1  0  0  0  0
 24 25  1  0  0  0  0
 27 28  1  0  0  0  0
M  END
> <NMREDATA_VERSION>
1.1

> <NMREDATA_LEVEL>
0

> <NMREDATA_SOLVENT>
CDCl3

> <NMREDATA_FORMULA>
C22H20BClFO2P

> <NMREDATA_SMILES>
COc1ccc(cc1)P(/C(=C/c1cccc(c1)Cl)/F)(c1ccc(cc1)OC)B

> <NMREDATA_ASSIGNMENT>
P7, 18.70, 7

> <NMREDATA_1D_31P>
Larmor=122
18.70, L=P7

$$$$
