
 OpenBabel06112616432D

 28 31  0  0  0  0  0  0  0  0999 V2000
    1.4398    0.8313    0.0000 C    0  0  0  0  0  0  0  0  0  0  0  0
    2.3997    0.8313    0.0000 C    0  0  0  0  0  0  0  0  0  0  0  0
    0.9599    0.0000    0.0000 O    0  0  0  0  0  0  0  0  0  0  0  0
    0.0000    0.0000    0.0000 P    0  0  0  0  0  0  0  0  0  0  0  0
    0.0000    0.9599    0.0000 O    0  0  0  0  0  0  0  0  0  0  0  0
   -0.9599    0.0000    0.0000 O    0  0  0  0  0  0  0  0  0  0  0  0
   -1.4398   -0.8313    0.0000 C    0  0  0  0  0  0  0  0  0  0  0  0
   -2.3997   -0.8313    0.0000 C    0  0  0  0  0  0  0  0  0  0  0  0
    0.0000   -0.9599    0.0000 C    0  0  0  0  0  0  0  0  0  0  0  0
   -0.8426   -1.4424    0.0000 C    0  0  0  0  0  0  0  0  0  0  0  0
   -0.0070   -2.9015    0.0000 C    0  0  0  0  0  0  0  0  0  0  0  0
    0.8356   -2.4190    0.0000 C    0  0  0  0  0  0  0  0  0  0  0  0
    0.8330   -1.4369    0.0000 N    0  0  0  0  0  0  0  0  0  0  0  0
    1.6822   -0.9436    0.0000 C    0  0  0  0  0  0  0  0  0  0  0  0
    2.5340   -1.4324    0.0000 C    0  0  0  0  0  0  0  0  0  0  0  0
    2.5366   -2.4145    0.0000 C    0  0  0  0  0  0  0  0  0  0  0  0
    3.3885   -2.9032    0.0000 C    0  0  0  0  0  0  0  0  0  0  0  0
    3.3911   -3.8853    0.0000 C    0  0  0  0  0  0  0  0  0  0  0  0
    4.3018   -4.4079    0.0000 Br   0  0  0  0  0  0  0  0  0  0  0  0
    2.5419   -4.3787    0.0000 C    0  0  0  0  0  0  0  0  0  0  0  0
    1.6900   -3.8899    0.0000 C    0  0  0  0  0  0  0  0  0  0  0  0
    1.6874   -2.9078    0.0000 C    0  0  0  0  0  0  0  0  0  0  0  0
   -0.8498   -3.3842    0.0000 C    0  0  0  0  0  0  0  0  0  0  0  0
   -0.8498   -4.3842    0.0000 O    0  0  0  0  0  0  0  0  0  0  0  0
   -1.6828   -2.9072    0.0000 N    0  0  0  0  0  0  0  0  0  0  0  0
   -2.5473   -3.4099    0.0000 C    0  0  0  0  0  0  0  0  0  0  0  0
   -1.6854   -1.9251    0.0000 C    0  0  0  0  0  0  0  0  0  0  0  0
   -2.5513   -1.4247    0.0000 O    0  0  0  0  0  0  0  0  0  0  0  0
  1  2  1  0  0  0  0
  1  3  1  0  0  0  0
  3  4  1  0  0  0  0
  4  5  2  0  0  0  0
  4  6  1  0  0  0  0
  4  9  1  0  0  0  0
  6  7  1  0  0  0  0
  7  8  1  0  0  0  0
  9 13  1  0  0  0  0
  9 10  2  0  0  0  0
 10 27  1  0  0  0  0
 10 11  1  0  0  0  0
 11 12  2  0  0  0  0
 11 23  1  0  0  0  0
 12 22  1  0  0  0  0
 12 13  1  0  0  0  0
 13 14  1  0  0  0  0
 14 15  1  0  0  0  0
 15 16  1  0  0  0  0
 16 22  2  0  0  0  0
 16 17  1  0  0  0  0
 17 18  2  0  0  0  0
 18 19  1  0  0  0  0
 18 20  1  0  0  0  0
 20 21  2  0  0  0  0
 21 22  1  0  0  0  0
 23 24  2  0  0  0  0
 23 25  1  0  0  0  0
 25 26  1  0  0  0  0
 25 27  1  0  0  0  0
 27 28  2  0  0  0  0
M  END
> <NMREDATA_VERSION>
1.1

> <NMREDATA_LEVEL>
0

> <NMREDATA_SOLVENT>
CDCl3

> <NMREDATA_FORMULA>
C19H20BrN2O5P

> <NMREDATA_SMILES>
CCOP(=O)(c1c2C(=O)N(C(=O)c2c2-c3c(CCn12)cc(cc3)Br)C)OCC

> <NMREDATA_ASSIGNMENT>
P4, 3.22, 4

> <NMREDATA_1D_31P>
Larmor=162
3.22, L=P4

$$$$
