
 OpenBabel06112616452D

 28 31  0  0  1  0  0  0  0  0999 V2000
   -0.9688   -0.9687    0.0000 O    0  0  0  0  0  0  0  0  0  0  0  0
    0.0000   -0.9687    0.0000 P    0  0  0  0  0  0  0  0  0  0  0  0
    0.0000   -1.9375    0.0000 C    0  0  0  0  0  0  0  0  0  0  0  0
    0.8390   -2.4219    0.0000 C    0  0  0  0  0  0  0  0  0  0  0  0
    0.8390   -3.3906    0.0000 C    0  0  0  0  0  0  0  0  0  0  0  0
    0.0000   -3.8750    0.0000 C    0  0  0  0  0  0  0  0  0  0  0  0
   -0.8390   -3.3906    0.0000 C    0  0  0  0  0  0  0  0  0  0  0  0
   -0.8390   -2.4219    0.0000 C    0  0  0  0  0  0  0  0  0  0  0  0
    0.9687   -0.9687    0.0000 C    0  0  0  0  0  0  0  0  0  0  0  0
    1.4531   -0.1298    0.0000 C    0  0  0  0  0  0  0  0  0  0  0  0
    2.4219   -0.1298    0.0000 C    0  0  0  0  0  0  0  0  0  0  0  0
    2.9062   -0.9687    0.0000 C    0  0  0  0  0  0  0  0  0  0  0  0
    2.4219   -1.8077    0.0000 C    0  0  0  0  0  0  0  0  0  0  0  0
    1.4531   -1.8077    0.0000 C    0  0  0  0  0  0  0  0  0  0  0  0
    0.0000    0.0000    0.0000 O    0  0  0  0  0  0  0  0  0  0  0  0
   -0.8390    0.4844    0.0000 C    0  0  3  0  0  0  0  0  0  0  0  0
   -1.7747    0.7351    0.0000 C    0  0  3  0  0  0  0  0  0  0  0  0
   -2.4597    0.0501    0.0000 Cl   0  0  0  0  0  0  0  0  0  0  0  0
   -2.0254    1.6708    0.0000 C    0  0  0  0  0  0  0  0  0  0  0  0
   -1.3404    2.3559    0.0000 C    0  0  0  0  0  0  0  0  0  0  0  0
   -0.4047    2.1051    0.0000 C    0  0  0  0  0  0  0  0  0  0  0  0
   -0.1540    1.1694    0.0000 C    0  0  0  0  0  0  0  0  0  0  0  0
   -2.3761   -0.6951    0.0000 C    0  0  0  0  0  0  0  0  0  0  0  0
   -2.2496   -1.6556    0.0000 C    0  0  0  0  0  0  0  0  0  0  0  0
   -3.0182   -2.2453    0.0000 C    0  0  0  0  0  0  0  0  0  0  0  0
   -3.9132   -1.8746    0.0000 C    0  0  0  0  0  0  0  0  0  0  0  0
   -4.0397   -0.9141    0.0000 C    0  0  0  0  0  0  0  0  0  0  0  0
   -3.2711   -0.3244    0.0000 C    0  0  0  0  0  0  0  0  0  0  0  0
  1  2  2  0  0  0  0
  2  3  1  0  0  0  0
  2  9  1  0  0  0  0
  2 15  1  0  0  0  0
  3  8  2  0  0  0  0
  3  4  1  0  0  0  0
  4  5  2  0  0  0  0
  5  6  1  0  0  0  0
  6  7  2  0  0  0  0
  7  8  1  0  0  0  0
  9 14  2  0  0  0  0
  9 10  1  0  0  0  0
 10 11  2  0  0  0  0
 11 12  1  0  0  0  0
 12 13  2  0  0  0  0
 13 14  1  0  0  0  0
 15 16  1  0  0  0  0
 16 22  1  0  0  0  0
 16 17  1  0  0  0  0
 16 23  1  0  0  0  0
 17 18  1  0  0  0  0
 17 19  1  0  0  0  0
 19 20  1  0  0  0  0
 20 21  1  0  0  0  0
 21 22  1  0  0  0  0
 23 28  2  0  0  0  0
 23 24  1  0  0  0  0
 24 25  2  0  0  0  0
 25 26  1  0  0  0  0
 26 27  2  0  0  0  0
 27 28  1  0  0  0  0
M  END
> <NMREDATA_VERSION>
1.1

> <NMREDATA_LEVEL>
0

> <NMREDATA_SOLVENT>
CDCl3

> <NMREDATA_FORMULA>
C24H24ClO2P

> <NMREDATA_SMILES>
ClC1CCCCC1(OP(=O)(c1ccccc1)c1ccccc1)c1ccccc1

> <NMREDATA_ASSIGNMENT>
P2, 28.00, 2

> <NMREDATA_1D_31P>
Larmor=162
28.00, L=P2

$$$$
