
 OpenBabel06112616442D

 44 47  0  0  0  0  0  0  0  0999 V2000
    0.1312   -1.4688    0.0000 C    0  0  0  0  0  0  0  0  0  0  0  0
    0.9792   -0.9792    0.0000 C    0  0  0  0  0  0  0  0  0  0  0  0
    1.8271   -1.4688    0.0000 C    0  0  0  0  0  0  0  0  0  0  0  0
    0.9792    0.0000    0.0000 Si   0  0  0  0  0  0  0  0  0  0  0  0
    1.9583    0.0000    0.0000 C    0  0  0  0  0  0  0  0  0  0  0  0
    2.4479   -0.8480    0.0000 C    0  0  0  0  0  0  0  0  0  0  0  0
    2.4479    0.8480    0.0000 C    0  0  0  0  0  0  0  0  0  0  0  0
    0.9792    0.9792    0.0000 C    0  0  0  0  0  0  0  0  0  0  0  0
    1.8271    1.4688    0.0000 C    0  0  0  0  0  0  0  0  0  0  0  0
    0.1312    1.4688    0.0000 C    0  0  0  0  0  0  0  0  0  0  0  0
    0.0000    0.0000    0.0000 C    0  0  0  0  0  0  0  0  0  0  0  0
   -0.9792    0.0000    0.0000 C    0  0  0  0  0  0  0  0  0  0  0  0
   -1.9583    0.0000    0.0000 C    0  0  0  0  0  0  0  0  0  0  0  0
   -2.4479   -0.8480    0.0000 C    0  0  0  0  0  0  0  0  0  0  0  0
   -3.4271   -0.8480    0.0000 C    0  0  0  0  0  0  0  0  0  0  0  0
   -3.9167    0.0000    0.0000 C    0  0  0  0  0  0  0  0  0  0  0  0
   -5.8750    0.0000    0.0000 P    0  0  0  0  0  0  0  0  0  0  0  0
   -6.2497   -0.9046    0.0000 O    0  0  0  0  0  0  0  0  0  0  0  0
   -6.8208   -0.2534    0.0000 C    0  0  0  0  0  0  0  0  0  0  0  0
   -7.5132    0.4389    0.0000 C    0  0  0  0  0  0  0  0  0  0  0  0
   -8.4590    0.1855    0.0000 C    0  0  0  0  0  0  0  0  0  0  0  0
   -8.7124   -0.7603    0.0000 C    0  0  0  0  0  0  0  0  0  0  0  0
   -8.0200   -1.4527    0.0000 C    0  0  0  0  0  0  0  0  0  0  0  0
   -8.2735   -2.3985    0.0000 N    0  0  0  0  0  0  0  0  0  0  0  0
   -9.2193   -2.6519    0.0000 C    0  0  0  0  0  0  0  0  0  0  0  0
   -9.9116   -1.9595    0.0000 C    0  0  0  0  0  0  0  0  0  0  0  0
   -7.5811   -3.0908    0.0000 C    0  0  0  0  0  0  0  0  0  0  0  0
   -6.6353   -2.8374    0.0000 C    0  0  0  0  0  0  0  0  0  0  0  0
   -7.0742   -1.1992    0.0000 C    0  0  0  0  0  0  0  0  0  0  0  0
   -7.2598    1.3848    0.0000 C    0  0  0  0  0  0  0  0  0  0  0  0
   -7.9521    2.0771    0.0000 O    0  0  0  0  0  0  0  0  0  0  0  0
   -6.3139    1.6382    0.0000 C    0  0  0  0  0  0  0  0  0  0  0  0
   -5.6216    0.9458    0.0000 C    0  0  0  0  0  0  0  0  0  0  0  0
   -4.6758    1.1992    0.0000 C    0  0  0  0  0  0  0  0  0  0  0  0
   -4.4223    2.1450    0.0000 C    0  0  0  0  0  0  0  0  0  0  0  0
   -3.4765    2.3985    0.0000 N    0  0  0  0  0  0  0  0  0  0  0  0
   -2.7842    1.7061    0.0000 C    0  0  0  0  0  0  0  0  0  0  0  0
   -1.8384    1.9595    0.0000 C    0  0  0  0  0  0  0  0  0  0  0  0
   -3.2231    3.3443    0.0000 C    0  0  0  0  0  0  0  0  0  0  0  0
   -2.2773    3.5977    0.0000 C    0  0  0  0  0  0  0  0  0  0  0  0
   -5.1147    2.8374    0.0000 C    0  0  0  0  0  0  0  0  0  0  0  0
   -6.0605    2.5840    0.0000 C    0  0  0  0  0  0  0  0  0  0  0  0
   -3.4271    0.8480    0.0000 C    0  0  0  0  0  0  0  0  0  0  0  0
   -2.4479    0.8480    0.0000 C    0  0  0  0  0  0  0  0  0  0  0  0
  1  2  1  0  0  0  0
  2  3  1  0  0  0  0
  2  4  1  0  0  0  0
  4  5  1  0  0  0  0
  4  8  1  0  0  0  0
  4 11  1  0  0  0  0
  5  6  1  0  0  0  0
  5  7  1  0  0  0  0
  8  9  1  0  0  0  0
  8 10  1  0  0  0  0
 11 12  3  0  0  0  0
 12 13  1  0  0  0  0
 13 44  2  0  0  0  0
 13 14  1  0  0  0  0
 14 15  2  0  0  0  0
 15 16  1  0  0  0  0
 16 17  1  0  0  0  0
 16 43  2  0  0  0  0
 17 33  1  0  0  0  0
 17 18  2  0  0  0  0
 17 19  1  0  0  0  0
 19 29  2  0  0  0  0
 19 20  1  0  0  0  0
 20 21  2  0  0  0  0
 20 30  1  0  0  0  0
 21 22  1  0  0  0  0
 22 23  2  0  0  0  0
 23 24  1  0  0  0  0
 23 29  1  0  0  0  0
 24 25  1  0  0  0  0
 24 27  1  0  0  0  0
 25 26  1  0  0  0  0
 27 28  1  0  0  0  0
 30 31  2  0  0  0  0
 30 32  1  0  0  0  0
 32 42  2  0  0  0  0
 32 33  1  0  0  0  0
 33 34  2  0  0  0  0
 34 35  1  0  0  0  0
 35 36  1  0  0  0  0
 35 41  2  0  0  0  0
 36 37  1  0  0  0  0
 36 39  1  0  0  0  0
 37 38  1  0  0  0  0
 39 40  1  0  0  0  0
 41 42  1  0  0  0  0
 43 44  1  0  0  0  0
M  END
> <NMREDATA_VERSION>
1.1

> <NMREDATA_LEVEL>
0

> <NMREDATA_SOLVENT>
CDCl3

> <NMREDATA_FORMULA>
C38H51N2O2PSi

> <NMREDATA_SMILES>
CCN(c1ccc2c(c1)P(=O)(c1ccc(cc1)C#C[Si](C(C)C)(C(C)C)C(C)C)c1c(C2=O)ccc(c1)N(CC)CC)CC

> <NMREDATA_ASSIGNMENT>
P17, 6.60, 17

> <NMREDATA_1D_31P>
Larmor=162
6.60, L=P17

$$$$
