
 OpenBabel06112616422D

 34 37  0  0  0  0  0  0  0  0999 V2000
    6.9020   -1.1026    0.0000 C   0  0  0  0  0  0  0  0  0  0  0  0
    6.8002   -0.1343    0.0000 C   0  0  0  0  0  0  0  0  0  0  0  0
    5.9107    0.2618    0.0000 C   0  0  0  0  0  0  0  0  0  0  0  0
    5.1229   -0.3106    0.0000 C   0  0  0  0  0  0  0  0  0  0  0  0
    4.2334    0.0855    0.0000 O   0  0  0  0  0  0  0  0  0  0  0  0
    3.4457   -0.4868    0.0000 C   0  0  0  0  0  0  0  0  0  0  0  0
    3.4457   -1.4605    0.0000 O   0  0  0  0  0  0  0  0  0  0  0  0
    2.5197   -1.7614    0.0000 C   0  0  0  0  0  0  0  0  0  0  0  0
    2.2188   -2.6874    0.0000 C   0  0  0  0  0  0  0  0  0  0  0  0
    2.8703   -3.4110    0.0000 C   0  0  0  0  0  0  0  0  0  0  0  0
    2.5694   -4.3371    0.0000 C   0  0  0  0  0  0  0  0  0  0  0  0
    1.6170   -4.5395    0.0000 C   0  0  0  0  0  0  0  0  0  0  0  0
    0.9655   -3.8159    0.0000 C   0  0  0  0  0  0  0  0  0  0  0  0
    1.2664   -2.8899    0.0000 C   0  0  0  0  0  0  0  0  0  0  0  0
    1.9474   -0.9737    0.0000 C   0  0  0  0  0  0  0  0  0  0  0  0
    0.0000   -0.9737    0.0000 P   0  0  0  0  0  0  0  0  0  0  0  0
    0.0000   -1.9474    0.0000 O   0  0  0  0  0  0  0  0  0  0  0  0
   -0.9737   -0.9737    0.0000 C   0  0  0  0  0  0  0  0  0  0  0  0
   -1.4605   -0.1304    0.0000 C   0  0  0  0  0  0  0  0  0  0  0  0
   -2.4342   -0.1304    0.0000 C   0  0  0  0  0  0  0  0  0  0  0  0
   -2.9211   -0.9737    0.0000 C   0  0  0  0  0  0  0  0  0  0  0  0
   -2.4342   -1.8169    0.0000 C   0  0  0  0  0  0  0  0  0  0  0  0
   -1.4605   -1.8169    0.0000 C   0  0  0  0  0  0  0  0  0  0  0  0
    0.0000    0.0000    0.0000 C   0  0  0  0  0  0  0  0  0  0  0  0
    0.8432    0.4868    0.0000 C   0  0  0  0  0  0  0  0  0  0  0  0
    0.8432    1.4605    0.0000 C   0  0  0  0  0  0  0  0  0  0  0  0
    0.0000    1.9474    0.0000 C   0  0  0  0  0  0  0  0  0  0  0  0
   -0.8432    1.4605    0.0000 C   0  0  0  0  0  0  0  0  0  0  0  0
   -0.8432    0.4868    0.0000 C   0  0  0  0  0  0  0  0  0  0  0  0
    2.5197   -0.1860    0.0000 C   0  0  0  0  0  0  0  0  0  0  0  0
    2.2188    0.7401    0.0000 C   0  0  0  0  0  0  0  0  0  0  0  0
    2.4212    1.6925    0.0000 F   0  0  0  0  0  0  0  0  0  0  0  0
    3.1448    1.0410    0.0000 F   0  0  0  0  0  0  0  0  0  0  0  0
    1.2664    0.9425    0.0000 F   0  0  0  0  0  0  0  0  0  0  0  0
  1  2  2  0  0  0  0
  2  3  1  0  0  0  0
  3  4  1  0  0  0  0
  4  5  1  0  0  0  0
  5  6  1  0  0  0  0
  6 30  2  0  0  0  0
  6  7  1  0  0  0  0
  7  8  1  0  0  0  0
  8  9  1  0  0  0  0
  8 15  2  0  0  0  0
  9 14  2  0  0  0  0
  9 10  1  0  0  0  0
 10 11  2  0  0  0  0
 11 12  1  0  0  0  0
 12 13  2  0  0  0  0
 13 14  1  0  0  0  0
 15 16  1  0  0  0  0
 15 30  1  0  0  0  0
 16 17  2  0  0  0  0
 16 18  1  0  0  0  0
 16 24  1  0  0  0  0
 18 23  2  0  0  0  0
 18 19  1  0  0  0  0
 19 20  2  0  0  0  0
 20 21  1  0  0  0  0
 21 22  2  0  0  0  0
 22 23  1  0  0  0  0
 24 29  2  0  0  0  0
 24 25  1  0  0  0  0
 25 26  2  0  0  0  0
 26 27  1  0  0  0  0
 27 28  2  0  0  0  0
 28 29  1  0  0  0  0
 30 31  1  0  0  0  0
 31 32  1  0  0  0  0
 31 33  1  0  0  0  0
 31 34  1  0  0  0  0
M  END
> <NMREDATA_VERSION>
1.1

> <NMREDATA_LEVEL>
0

> <NMREDATA_SOLVENT>
CDCl3

> <NMREDATA_FORMULA>
C27H22F3O3P

> <NMREDATA_SMILES>
C=CCCOc1oc(c(c1C(F)(F)F)P(=O)(c1ccccc1)c1ccccc1)c1ccccc1

> <NMREDATA_ASSIGNMENT>
P16, 19.06, 16

> <NMREDATA_1D_31P>
Larmor=162
19.06, L=P16

$$$$
