
 OpenBabel06112616432D

 29 33  0  0  0  0  0  0  0  0999 V2000
    6.6547    1.5000    0.0000 C   0  0  0  0  0  0  0  0  0  0  0  0
    6.6547    0.5000    0.0000 C   0  0  0  0  0  0  0  0  0  0  0  0
    5.7887    0.0000    0.0000 C   0  0  0  0  0  0  0  0  0  0  0  0
    4.9227    0.5000    0.0000 C   0  0  0  0  0  0  0  0  0  0  0  0
    4.0567    0.0000    0.0000 C   0  0  0  0  0  0  0  0  0  0  0  0
    3.1906    0.5000    0.0000 P   0  0  3  0  0  0  0  0  0  0  0  0
    4.0567    1.0000    0.0000 O   0  0  0  0  0  0  0  0  0  0  0  0
    2.7568   -0.4010    0.0000 O   0  0  0  0  0  0  0  0  0  0  0  0
    1.7818   -0.6235    0.0000 C   0  0  0  0  0  0  0  0  0  0  0  0
    1.0000    0.0000    0.0000 C   0  0  0  0  0  0  0  0  0  0  0  0
    0.0000    0.0000    0.0000 C   0  0  0  0  0  0  0  0  0  0  0  0
   -0.7071   -0.7071    0.0000 C   0  0  0  0  0  0  0  0  0  0  0  0
   -0.4483   -1.6730    0.0000 C   0  0  0  0  0  0  0  0  0  0  0  0
   -1.1554   -2.3801    0.0000 C   0  0  0  0  0  0  0  0  0  0  0  0
   -2.1213   -2.1213    0.0000 C   0  0  0  0  0  0  0  0  0  0  0  0
   -2.3801   -1.1554    0.0000 C   0  0  0  0  0  0  0  0  0  0  0  0
   -1.6730   -0.4483    0.0000 C   0  0  0  0  0  0  0  0  0  0  0  0
    0.0000    1.0000    0.0000 C   0  0  0  0  0  0  0  0  0  0  0  0
    1.0000    1.0000    0.0000 C   0  0  0  0  0  0  0  0  0  0  0  0
    1.7818    1.6235    0.0000 C   0  0  0  0  0  0  0  0  0  0  0  0
    1.5593    2.5984    0.0000 C   0  0  0  0  0  0  0  0  0  0  0  0
    0.6037    2.8932    0.0000 C   0  0  0  0  0  0  0  0  0  0  0  0
    0.3812    3.8681    0.0000 C   0  0  0  0  0  0  0  0  0  0  0  0
    1.1143    4.5483    0.0000 C   0  0  0  0  0  0  0  0  0  0  0  0
    2.0698    4.2535    0.0000 C   0  0  0  0  0  0  0  0  0  0  0  0
    2.2924    3.2786    0.0000 C   0  0  0  0  0  0  0  0  0  0  0  0
    2.7568    1.4010    0.0000 O   0  0  0  0  0  0  0  0  0  0  0  0
    4.9227    1.5000    0.0000 C   0  0  0  0  0  0  0  0  0  0  0  0
    5.7887    2.0000    0.0000 C   0  0  0  0  0  0  0  0  0  0  0  0
  1 29  2  0  0  0  0
  1  2  1  0  0  0  0
  2  3  2  0  0  0  0
  3  4  1  0  0  0  0
  4  5  1  0  0  0  0
  4 28  2  0  0  0  0
  5  6  1  0  0  0  0
  6 27  1  0  0  0  0
  6  7  2  0  0  0  0
  6  8  1  0  0  0  0
  8  9  1  0  0  0  0
  9 10  1  0  0  0  0
 10 19  1  0  0  0  0
 10 11  2  0  0  0  0
 11 12  1  0  0  0  0
 11 18  1  0  0  0  0
 12 17  2  0  0  0  0
 12 13  1  0  0  0  0
 13 14  2  0  0  0  0
 14 15  1  0  0  0  0
 15 16  2  0  0  0  0
 16 17  1  0  0  0  0
 18 19  1  0  0  0  0
 19 20  2  0  0  0  0
 20 21  1  0  0  0  0
 20 27  1  0  0  0  0
 21 26  2  0  0  0  0
 21 22  1  0  0  0  0
 22 23  2  0  0  0  0
 23 24  1  0  0  0  0
 24 25  2  0  0  0  0
 25 26  1  0  0  0  0
 28 29  1  0  0  0  0
M  END
> <NMREDATA_VERSION>
1.1

> <NMREDATA_LEVEL>
0

> <NMREDATA_SOLVENT>
CDCl3

> <NMREDATA_FORMULA>
C25H21O3P

> <NMREDATA_SMILES>
O=P1(OCC2=C(CC2=C(O1)c1ccccc1)c1ccccc1)Cc1ccccc1

> <NMREDATA_ASSIGNMENT>
P6, 28.60, 6

> <NMREDATA_1D_31P>
Larmor=202
28.60, L=P6

$$$$
