
 OpenBabel06112616492D

 29 32  0  0  1  0  0  0  0  0999 V2000
   -1.8839    2.7579    0.0000 N    0  0  0  0  0  0  0  0  0  0  0  0
   -2.7237    2.2730    0.0000 C    0  0  0  0  0  0  0  0  0  0  0  0
   -2.7237    1.3034    0.0000 C    0  0  0  0  0  0  0  0  0  0  0  0
   -3.5635    0.8185    0.0000 C    0  0  0  0  0  0  0  0  0  0  0  0
   -4.4033    1.3034    0.0000 C    0  0  0  0  0  0  0  0  0  0  0  0
   -4.4033    2.2730    0.0000 C    0  0  0  0  0  0  0  0  0  0  0  0
   -3.5635    2.7579    0.0000 C    0  0  0  0  0  0  0  0  0  0  0  0
   -1.7826    3.7223    0.0000 C    0  0  0  0  0  0  0  0  0  0  0  0
   -0.8340    3.9239    0.0000 C    0  0  0  0  0  0  0  0  0  0  0  0
   -0.3492    3.0841    0.0000 N    0  0  0  0  0  0  0  0  0  0  0  0
    1.5796    2.8814    0.0000 C    0  0  0  0  0  0  0  0  0  0  0  0
    2.1495    3.6659    0.0000 C    0  0  0  0  0  0  0  0  0  0  0  0
    3.1139    3.5645    0.0000 C    0  0  0  0  0  0  0  0  0  0  0  0
    3.5083    2.6787    0.0000 C    0  0  0  0  0  0  0  0  0  0  0  0
    2.9384    1.8942    0.0000 C    0  0  0  0  0  0  0  0  0  0  0  0
    1.9740    1.9955    0.0000 C    0  0  0  0  0  0  0  0  0  0  0  0
   -0.9981    2.3635    0.0000 P    0  0  0  0  0  0  0  0  0  0  0  0
   -1.2977    1.4413    0.0000 O    0  0  0  0  0  0  0  0  0  0  0  0
   -0.3492    1.6429    0.0000 C    0  0  3  0  0  0  0  0  0  0  0  0
    0.5993    1.8445    0.0000 C    0  0  0  0  0  0  0  0  0  0  0  0
    1.2482    1.1238    0.0000 C    0  0  0  0  0  0  0  0  0  0  0  0
    2.1967    1.3255    0.0000 O    0  0  0  0  0  0  0  0  0  0  0  0
   -0.6489    0.7206    0.0000 C    0  0  0  0  0  0  0  0  0  0  0  0
   -1.5974    0.5190    0.0000 C    0  0  0  0  0  0  0  0  0  0  0  0
   -1.8970   -0.4032    0.0000 C    0  0  0  0  0  0  0  0  0  0  0  0
   -1.2482   -1.1238    0.0000 C    0  0  0  0  0  0  0  0  0  0  0  0
   -1.5478   -2.0461    0.0000 Br   0  0  0  0  0  0  0  0  0  0  0  0
   -0.2997   -0.9222    0.0000 C    0  0  0  0  0  0  0  0  0  0  0  0
    0.0000    0.0000    0.0000 C    0  0  0  0  0  0  0  0  0  0  0  0
  1 17  1  0  0  0  0
  1  2  1  0  0  0  0
  1  8  1  0  0  0  0
  2  7  2  0  0  0  0
  2  3  1  0  0  0  0
  3  4  2  0  0  0  0
  4  5  1  0  0  0  0
  5  6  2  0  0  0  0
  6  7  1  0  0  0  0
  8  9  1  0  0  0  0
  9 10  1  0  0  0  0
 10 11  1  0  0  0  0
 10 17  1  0  0  0  0
 11 16  2  0  0  0  0
 11 12  1  0  0  0  0
 12 13  2  0  0  0  0
 13 14  1  0  0  0  0
 14 15  2  0  0  0  0
 15 16  1  0  0  0  0
 17 18  2  0  0  0  0
 17 19  1  0  0  0  0
 19 20  1  0  0  0  0
 19 23  1  0  0  0  0
 20 21  1  0  0  0  0
 21 22  2  0  0  0  0
 23 29  2  0  0  0  0
 23 24  1  0  0  0  0
 24 25  2  0  0  0  0
 25 26  1  0  0  0  0
 26 27  1  0  0  0  0
 26 28  2  0  0  0  0
 28 29  1  0  0  0  0
M  END
> <NMREDATA_VERSION>
1.1

> <NMREDATA_LEVEL>
0

> <NMREDATA_SOLVENT>
CDCl3

> <NMREDATA_FORMULA>
C23H22BrN2O2P

> <NMREDATA_SMILES>
O=CCC(P1(=O)N(CCN1c1ccccc1)c1ccccc1)c1ccc(cc1)Br

> <NMREDATA_ASSIGNMENT>
P17, 27.94, 17

> <NMREDATA_1D_31P>
Larmor=162
27.94, L=P17

$$$$
