
 OpenBabel06112616492D

 36 38  0  0  0  0  0  0  0  0999 V2000
    4.7413   -1.4615    0.0000 C   0  0  0  0  0  0  0  0  0  0  0  0
    3.7669   -1.4615    0.0000 C   0  0  0  0  0  0  0  0  0  0  0  0
    3.2797   -0.6177    0.0000 C   0  0  0  0  0  0  0  0  0  0  0  0
    3.2797   -2.3054    0.0000 N   0  0  0  0  0  0  0  0  0  0  0  0
    3.7669   -3.1492    0.0000 C   0  0  0  0  0  0  0  0  0  0  0  0
    4.7413   -3.1492    0.0000 C   0  0  0  0  0  0  0  0  0  0  0  0
    3.2797   -3.9930    0.0000 C   0  0  0  0  0  0  0  0  0  0  0  0
    2.3054   -2.3054    0.0000 C   0  0  0  0  0  0  0  0  0  0  0  0
    1.4615   -1.8182    0.0000 C   0  0  0  0  0  0  0  0  0  0  0  0
    0.9744   -0.9744    0.0000 N   0  0  0  0  0  0  0  0  0  0  0  0
    0.0000   -0.9744    0.0000 P   0  0  0  0  0  0  0  0  0  0  0  0
    0.0000   -1.9487    0.0000 N   0  0  0  0  0  0  0  0  0  0  0  0
   -1.6876   -2.9231    0.0000 C   0  0  0  0  0  0  0  0  0  0  0  0
   -2.1748   -3.7669    0.0000 C   0  0  0  0  0  0  0  0  0  0  0  0
   -1.2005   -3.7669    0.0000 C   0  0  0  0  0  0  0  0  0  0  0  0
   -2.5315   -2.4359    0.0000 C   0  0  0  0  0  0  0  0  0  0  0  0
   -0.9744   -0.9744    0.0000 N   0  0  0  0  0  0  0  0  0  0  0  0
   -1.4615   -0.1305    0.0000 C   0  0  0  0  0  0  0  0  0  0  0  0
   -2.4359   -0.1305    0.0000 C   0  0  0  0  0  0  0  0  0  0  0  0
   -2.9231   -0.9744    0.0000 C   0  0  0  0  0  0  0  0  0  0  0  0
   -2.4359   -1.8182    0.0000 C   0  0  0  0  0  0  0  0  0  0  0  0
   -1.4615   -1.8182    0.0000 C   0  0  0  0  0  0  0  0  0  0  0  0
    0.0000    0.0000    0.0000 N   0  0  0  0  0  0  0  0  0  0  0  0
    0.8438    0.4872    0.0000 C   0  0  0  0  0  0  0  0  0  0  0  0
    0.8438    1.4615    0.0000 C   0  0  0  0  0  0  0  0  0  0  0  0
    0.0000    1.9487    0.0000 C   0  0  0  0  0  0  0  0  0  0  0  0
   -0.8438    1.4615    0.0000 C   0  0  0  0  0  0  0  0  0  0  0  0
   -0.8438    0.4872    0.0000 C   0  0  0  0  0  0  0  0  0  0  0  0
    1.4615   -2.7925    0.0000 C   0  0  0  0  0  0  0  0  0  0  0  0
    0.9744   -3.6364    0.0000 N   0  0  0  0  0  0  0  0  0  0  0  0
    1.4615   -4.4802    0.0000 C   0  0  0  0  0  0  0  0  0  0  0  0
    2.4359   -4.4802    0.0000 C   0  0  0  0  0  0  0  0  0  0  0  0
    0.9744   -5.3240    0.0000 C   0  0  0  0  0  0  0  0  0  0  0  0
    0.0000   -3.6364    0.0000 C   0  0  0  0  0  0  0  0  0  0  0  0
   -0.4872   -4.4802    0.0000 C   0  0  0  0  0  0  0  0  0  0  0  0
   -0.4872   -2.7925    0.0000 C   0  0  0  0  0  0  0  0  0  0  0  0
  1  2  1  0  0  0  0
  2  3  1  0  0  0  0
  2  4  1  0  0  0  0
  4  5  1  0  0  0  0
  4  8  1  0  0  0  0
  5  6  1  0  0  0  0
  5  7  1  0  0  0  0
  8 29  2  0  0  0  0
  8  9  1  0  0  0  0
  9 10  2  3  0  0  0
  9 29  1  0  0  0  0
 10 11  1  0  0  0  0
 11 12  2  0  0  0  0
 11 17  1  0  0  0  0
 11 23  1  0  0  0  0
 12 13  1  0  0  0  0
 13 14  1  0  0  0  0
 13 15  1  0  0  0  0
 13 16  1  0  0  0  0
 17 22  1  0  0  0  0
 17 18  1  0  0  0  0
 18 19  1  0  0  0  0
 19 20  1  0  0  0  0
 20 21  1  0  0  0  0
 21 22  1  0  0  0  0
 23 28  1  0  0  0  0
 23 24  1  0  0  0  0
 24 25  1  0  0  0  0
 25 26  1  0  0  0  0
 26 27  1  0  0  0  0
 27 28  1  0  0  0  0
 29 30  1  0  0  0  0
 30 31  1  0  0  0  0
 30 34  1  0  0  0  0
 31 32  1  0  0  0  0
 31 33  1  0  0  0  0
 34 35  1  0  0  0  0
 34 36  1  0  0  0  0
M  END
> <NMREDATA_VERSION>
1.1

> <NMREDATA_LEVEL>
0

> <NMREDATA_SOLVENT>
toluene-d8

> <NMREDATA_FORMULA>
C29H57N6P

> <NMREDATA_SMILES>
CC(N(C1=C(C1=NP(=NC(C)(C)C)(N1CCCCC1)N1CCCCC1)N(C(C)C)C(C)C)C(C)C)C

> <NMREDATA_ASSIGNMENT>
P11, 4.68, 11

> <NMREDATA_1D_31P>
Larmor=121
4.68, L=P11

$$$$
