
 OpenBabel06112616442D

 44 49  0  0  0  0  0  0  0  0999 V2000
   -0.7321   -1.0000    0.0000 C   0  0  0  0  0  0  0  0  0  0  0  0
    0.1340   -1.5000    0.0000 C   0  0  0  0  0  0  0  0  0  0  0  0
    1.0000   -1.0000    0.0000 O   0  0  0  0  0  0  0  0  0  0  0  0
    1.0000    0.0000    0.0000 P   0  0  0  0  0  0  0  0  0  0  0  0
    2.0000    0.0000    0.0000 O   0  0  0  0  0  0  0  0  0  0  0  0
    2.5000    0.8660    0.0000 C   0  0  0  0  0  0  0  0  0  0  0  0
    3.5000    0.8660    0.0000 C   0  0  0  0  0  0  0  0  0  0  0  0
    1.0000    1.0000    0.0000 C   0  0  0  0  0  0  0  0  0  0  0  0
    0.1910    1.5878    0.0000 C   0  0  0  0  0  0  0  0  0  0  0  0
    0.5000    2.5388    0.0000 C   0  0  0  0  0  0  0  0  0  0  0  0
   -0.0878    3.3479    0.0000 C   0  0  0  0  0  0  0  0  0  0  0  0
    0.3190    4.2614    0.0000 C   0  0  0  0  0  0  0  0  0  0  0  0
   -0.2688    5.0704    0.0000 C   0  0  0  0  0  0  0  0  0  0  0  0
    0.1379    5.9840    0.0000 C   0  0  0  0  0  0  0  0  0  0  0  0
    1.1324    6.0885    0.0000 C   0  0  0  0  0  0  0  0  0  0  0  0
    1.5392    7.0020    0.0000 O   0  0  0  0  0  0  0  0  0  0  0  0
    2.5337    7.1066    0.0000 C   0  0  0  0  0  0  0  0  0  0  0  0
    2.9404    8.0201    0.0000 C   0  0  0  0  0  0  0  0  0  0  0  0
    3.9349    8.1246    0.0000 C   0  0  0  0  0  0  0  0  0  0  0  0
    4.5227    7.3156    0.0000 C   0  0  0  0  0  0  0  0  0  0  0  0
    4.1160    6.4021    0.0000 C   0  0  0  0  0  0  0  0  0  0  0  0
    3.1215    6.2976    0.0000 C   0  0  0  0  0  0  0  0  0  0  0  0
    1.7202    5.2795    0.0000 C   0  0  0  0  0  0  0  0  0  0  0  0
    1.3135    4.3659    0.0000 C   0  0  0  0  0  0  0  0  0  0  0  0
   -1.0823    3.2433    0.0000 C   0  0  0  0  0  0  0  0  0  0  0  0
   -1.4890    2.3298    0.0000 C   0  0  0  0  0  0  0  0  0  0  0  0
   -2.4836    2.2253    0.0000 C   0  0  0  0  0  0  0  0  0  0  0  0
   -3.0714    3.0343    0.0000 C   0  0  0  0  0  0  0  0  0  0  0  0
   -4.0659    2.9297    0.0000 O   0  0  0  0  0  0  0  0  0  0  0  0
   -4.6537    3.7388    0.0000 C   0  0  0  0  0  0  0  0  0  0  0  0
   -5.6482    3.6342    0.0000 C   0  0  0  0  0  0  0  0  0  0  0  0
   -6.2360    4.4433    0.0000 C   0  0  0  0  0  0  0  0  0  0  0  0
   -5.8292    5.3568    0.0000 C   0  0  0  0  0  0  0  0  0  0  0  0
   -4.8347    5.4613    0.0000 C   0  0  0  0  0  0  0  0  0  0  0  0
   -4.2469    4.6523    0.0000 C   0  0  0  0  0  0  0  0  0  0  0  0
   -2.6646    3.9478    0.0000 C   0  0  0  0  0  0  0  0  0  0  0  0
   -1.6701    4.0523    0.0000 C   0  0  0  0  0  0  0  0  0  0  0  0
    1.5000    2.5388    0.0000 C   0  0  0  0  0  0  0  0  0  0  0  0
    1.8090    1.5878    0.0000 C   0  0  0  0  0  0  0  0  0  0  0  0
    2.7872    1.3799    0.0000 C   0  0  0  0  0  0  0  0  0  0  0  0
    3.4563    2.1230    0.0000 C   0  0  0  0  0  0  0  0  0  0  0  0
    3.1473    3.0741    0.0000 C   0  0  0  0  0  0  0  0  0  0  0  0
    2.1691    3.2820    0.0000 C   0  0  0  0  0  0  0  0  0  0  0  0
    0.0000    0.0000    0.0000 O   0  0  0  0  0  0  0  0  0  0  0  0
  1  2  1  0  0  0  0
  2  3  1  0  0  0  0
  3  4  1  0  0  0  0
  4  5  1  0  0  0  0
  4  8  1  0  0  0  0
  4 44  2  0  0  0  0
  5  6  1  0  0  0  0
  6  7  1  0  0  0  0
  8 39  1  0  0  0  0
  8  9  2  0  0  0  0
  9 10  1  0  0  0  0
 10 11  2  0  0  0  0
 10 38  1  0  0  0  0
 11 12  1  0  0  0  0
 11 25  1  0  0  0  0
 12 24  2  0  0  0  0
 12 13  1  0  0  0  0
 13 14  2  0  0  0  0
 14 15  1  0  0  0  0
 15 16  1  0  0  0  0
 15 23  2  0  0  0  0
 16 17  1  0  0  0  0
 17 22  2  0  0  0  0
 17 18  1  0  0  0  0
 18 19  2  0  0  0  0
 19 20  1  0  0  0  0
 20 21  2  0  0  0  0
 21 22  1  0  0  0  0
 23 24  1  0  0  0  0
 25 37  2  0  0  0  0
 25 26  1  0  0  0  0
 26 27  2  0  0  0  0
 27 28  1  0  0  0  0
 28 29  1  0  0  0  0
 28 36  2  0  0  0  0
 29 30  1  0  0  0  0
 30 35  2  0  0  0  0
 30 31  1  0  0  0  0
 31 32  2  0  0  0  0
 32 33  1  0  0  0  0
 33 34  2  0  0  0  0
 34 35  1  0  0  0  0
 36 37  1  0  0  0  0
 38 43  2  0  0  0  0
 38 39  1  0  0  0  0
 39 40  2  0  0  0  0
 40 41  1  0  0  0  0
 41 42  2  0  0  0  0
 42 43  1  0  0  0  0
M  END
> <NMREDATA_VERSION>
1.1

> <NMREDATA_LEVEL>
0

> <NMREDATA_SOLVENT>
CDCl3

> <NMREDATA_FORMULA>
C38H33O5P

> <NMREDATA_SMILES>
CCOP(=O)(C1=CC(=C(c2ccc(cc2)Oc2ccccc2)c2ccc(cc2)Oc2ccccc2)c2c1cccc2)OCC

> <NMREDATA_ASSIGNMENT>
P4, 15.90, 4

> <NMREDATA_1D_31P>
Larmor=202
15.90, L=P4

$$$$
