
 OpenBabel06112616492D

 32 34  0  0  1  0  0  0  0  0999 V2000
    1.5000   -3.5981    0.0000 C   0  0  0  0  0  0  0  0  0  0  0  0
    2.0000   -4.4641    0.0000 O   0  0  0  0  0  0  0  0  0  0  0  0
    2.0000   -2.7321    0.0000 O   0  0  0  0  0  0  0  0  0  0  0  0
    3.0000   -2.7321    0.0000 C   0  0  0  0  0  0  0  0  0  0  0  0
    0.5000   -3.5981    0.0000 C   0  0  0  0  0  0  0  0  0  0  0  0
    0.0000   -4.4641    0.0000 C   0  0  0  0  0  0  0  0  0  0  0  0
   -1.0000   -4.4641    0.0000 C   0  0  0  0  0  0  0  0  0  0  0  0
   -1.5000   -3.5981    0.0000 N   0  0  0  0  0  0  0  0  0  0  0  0
   -1.0000   -2.7321    0.0000 C   0  0  0  0  0  0  0  0  0  0  0  0
   -1.5000   -1.8660    0.0000 C   0  0  3  0  0  0  0  0  0  0  0  0
   -2.5000   -1.8660    0.0000 C   0  0  0  0  0  0  0  0  0  0  0  0
   -3.0000   -2.7321    0.0000 C   0  0  0  0  0  0  0  0  0  0  0  0
   -4.0000   -2.7321    0.0000 C   0  0  0  0  0  0  0  0  0  0  0  0
   -4.5000   -1.8660    0.0000 N   0  0  0  0  0  0  0  0  0  0  0  0
   -5.4945   -1.7615    0.0000 C   0  0  0  0  0  0  0  0  0  0  0  0
   -6.1637   -2.5046    0.0000 O   0  0  0  0  0  0  0  0  0  0  0  0
   -5.7024   -0.7833    0.0000 C   0  0  0  0  0  0  0  0  0  0  0  0
   -6.5685   -0.2833    0.0000 C   0  0  0  0  0  0  0  0  0  0  0  0
   -6.5685    0.7167    0.0000 C   0  0  0  0  0  0  0  0  0  0  0  0
   -5.7024    1.2167    0.0000 C   0  0  0  0  0  0  0  0  0  0  0  0
   -4.8364    0.7167    0.0000 C   0  0  0  0  0  0  0  0  0  0  0  0
   -4.8364   -0.2833    0.0000 C   0  0  0  0  0  0  0  0  0  0  0  0
   -4.0933   -0.9525    0.0000 C   0  0  0  0  0  0  0  0  0  0  0  0
   -3.1151   -0.7446    0.0000 O   0  0  0  0  0  0  0  0  0  0  0  0
   -1.0000   -1.0000    0.0000 C   0  0  0  0  0  0  0  0  0  0  0  0
    0.0000   -1.0000    0.0000 P   0  0  0  0  0  0  0  0  0  0  0  0
    0.0000   -2.0000    0.0000 O   0  0  0  0  0  0  0  0  0  0  0  0
    1.0000   -1.0000    0.0000 O   0  0  0  0  0  0  0  0  0  0  0  0
    1.5000   -0.1340    0.0000 C   0  0  0  0  0  0  0  0  0  0  0  0
    0.0000    0.0000    0.0000 O   0  0  0  0  0  0  0  0  0  0  0  0
    0.8660    0.5000    0.0000 C   0  0  0  0  0  0  0  0  0  0  0  0
    0.0000   -2.7321    0.0000 C   0  0  0  0  0  0  0  0  0  0  0  0
  1  2  2  0  0  0  0
  1  3  1  0  0  0  0
  1  5  1  0  0  0  0
  3  4  1  0  0  0  0
  5 32  2  0  0  0  0
  5  6  1  0  0  0  0
  6  7  2  0  0  0  0
  7  8  1  0  0  0  0
  8  9  2  0  0  0  0
  9 10  1  0  0  0  0
  9 32  1  0  0  0  0
 10 11  1  0  0  0  0
 10 25  1  0  0  0  0
 11 12  1  0  0  0  0
 12 13  1  0  0  0  0
 13 14  1  0  0  0  0
 14 23  1  0  0  0  0
 14 15  1  0  0  0  0
 15 16  2  0  0  0  0
 15 17  1  0  0  0  0
 17 22  2  0  0  0  0
 17 18  1  0  0  0  0
 18 19  2  0  0  0  0
 19 20  1  0  0  0  0
 20 21  2  0  0  0  0
 21 22  1  0  0  0  0
 22 23  1  0  0  0  0
 23 24  2  0  0  0  0
 25 26  1  0  0  0  0
 26 27  2  0  0  0  0
 26 28  1  0  0  0  0
 26 30  1  0  0  0  0
 28 29  1  0  0  0  0
 30 31  1  0  0  0  0
M  END
> <NMREDATA_VERSION>
1.1

> <NMREDATA_LEVEL>
0

> <NMREDATA_SOLVENT>
CDCl3

> <NMREDATA_FORMULA>
C22H25N2O7P

> <NMREDATA_SMILES>
COC(=O)c1ccnc(c1)C(CP(=O)(OC)OC)CCCN1C(=O)c2c(C1=O)cccc2

> <NMREDATA_ASSIGNMENT>
P26, 32.40, 26

> <NMREDATA_1D_31P>
Larmor=243
32.40, L=P26

$$$$
