
 OpenBabel06112616462D

 35 37  0  0  0  0  0  0  0  0999 V2000
    7.5937   -6.7903    0.0000 C   0  0  0  0  0  0  0  0  0  0  0  0
    6.7556   -6.3065    0.0000 C   0  0  0  0  0  0  0  0  0  0  0  0
    5.9175   -6.7903    0.0000 C   0  0  0  0  0  0  0  0  0  0  0  0
    5.0794   -6.3065    0.0000 C   0  0  0  0  0  0  0  0  0  0  0  0
    5.0794   -5.3387    0.0000 C   0  0  0  0  0  0  0  0  0  0  0  0
    3.4032   -4.3710    0.0000 C   0  0  0  0  0  0  0  0  0  0  0  0
    3.4032   -3.4032    0.0000 P   0  3  0  0  0  0  0  0  0  0  0  0
    4.3710   -3.4032    0.0000 C   0  0  0  0  0  0  0  0  0  0  0  0
    4.8548   -2.5651    0.0000 C   0  0  0  0  0  0  0  0  0  0  0  0
    5.8226   -2.5651    0.0000 C   0  0  0  0  0  0  0  0  0  0  0  0
    6.3065   -3.4032    0.0000 C   0  0  0  0  0  0  0  0  0  0  0  0
    5.8226   -4.2413    0.0000 C   0  0  0  0  0  0  0  0  0  0  0  0
    4.8548   -4.2413    0.0000 C   0  0  0  0  0  0  0  0  0  0  0  0
    3.4032   -2.4355    0.0000 C   0  0  0  0  0  0  0  0  0  0  0  0
    2.5651   -1.9516    0.0000 C   0  0  0  0  0  0  0  0  0  0  0  0
    2.5651   -0.9839    0.0000 C   0  0  0  0  0  0  0  0  0  0  0  0
    3.4032   -0.5000    0.0000 C   0  0  0  0  0  0  0  0  0  0  0  0
    4.2413   -0.9839    0.0000 C   0  0  0  0  0  0  0  0  0  0  0  0
    4.2413   -1.9516    0.0000 C   0  0  0  0  0  0  0  0  0  0  0  0
    2.4355   -3.4032    0.0000 C   0  0  0  0  0  0  0  0  0  0  0  0
    1.9516   -4.2413    0.0000 C   0  0  0  0  0  0  0  0  0  0  0  0
    0.9839   -4.2413    0.0000 C   0  0  0  0  0  0  0  0  0  0  0  0
    0.5000   -3.4032    0.0000 C   0  0  0  0  0  0  0  0  0  0  0  0
    0.9839   -2.5651    0.0000 C   0  0  0  0  0  0  0  0  0  0  0  0
    1.9516   -2.5651    0.0000 C   0  0  0  0  0  0  0  0  0  0  0  0
    5.9175   -4.8548    0.0000 C   0  0  0  0  0  0  0  0  0  0  0  0
    6.7556   -5.3387    0.0000 C   0  0  0  0  0  0  0  0  0  0  0  0
   10.4597   -2.5000    0.0000 O   0  0  0  0  0  0  0  0  0  0  0  0
   10.4597   -1.5000    0.0000 S   0  0  0  0  0  0  0  0  0  0  0  0
   11.4597   -1.5000    0.0000 O   0  0  0  0  0  0  0  0  0  0  0  0
   10.4597   -0.5000    0.0000 O   0  5  0  0  0  0  0  0  0  0  0  0
    9.4597   -1.5000    0.0000 C   0  0  0  0  0  0  0  0  0  0  0  0
    8.5937   -2.0000    0.0000 F   0  0  0  0  0  0  0  0  0  0  0  0
    9.4597   -2.5000    0.0000 F   0  0  0  0  0  0  0  0  0  0  0  0
    8.9597   -0.6340    0.0000 F   0  0  0  0  0  0  0  0  0  0  0  0
  1  2  1  0  0  0  0
  2 27  2  0  0  0  0
  2  3  1  0  0  0  0
  3  4  2  0  0  0  0
  4  5  1  0  0  0  0
  5  6  1  0  0  0  0
  5 26  2  0  0  0  0
  6  7  1  0  0  0  0
  7  8  1  0  0  0  0
  7 14  1  0  0  0  0
  7 20  1  0  0  0  0
  8 13  2  0  0  0  0
  8  9  1  0  0  0  0
  9 10  2  0  0  0  0
 10 11  1  0  0  0  0
 11 12  2  0  0  0  0
 12 13  1  0  0  0  0
 14 19  2  0  0  0  0
 14 15  1  0  0  0  0
 15 16  2  0  0  0  0
 16 17  1  0  0  0  0
 17 18  2  0  0  0  0
 18 19  1  0  0  0  0
 20 25  2  0  0  0  0
 20 21  1  0  0  0  0
 21 22  2  0  0  0  0
 22 23  1  0  0  0  0
 23 24  2  0  0  0  0
 24 25  1  0  0  0  0
 26 27  1  0  0  0  0
 28 29  2  0  0  0  0
 29 30  2  0  0  0  0
 29 31  1  0  0  0  0
 29 32  1  0  0  0  0
 32 33  1  0  0  0  0
 32 34  1  0  0  0  0
 32 35  1  0  0  0  0
M  END
> <NMREDATA_VERSION>
1.1

> <NMREDATA_LEVEL>
0

> <NMREDATA_SOLVENT>
DMSO-d6

> <NMREDATA_FORMULA>
C27H24F3O3PS

> <NMREDATA_SMILES>
FC(S(=O)(=O)[O-])(F)F.Cc1ccc(cc1)C[P+](c1ccccc1)(c1ccccc1)c1ccccc1

> <NMREDATA_ASSIGNMENT>
P7, 22.60, 7

> <NMREDATA_1D_31P>
Larmor=162
22.60, L=P7

$$$$
