
 OpenBabel06112616442D

 22 24  0  0  0  0  0  0  0  0999 V2000
    0.8090   -1.5878    0.0000 C   0  0  0  0  0  0  0  0  0  0  0  0
    0.0000   -1.0000    0.0000 C   0  0  0  0  0  0  0  0  0  0  0  0
   -0.9511   -1.3090    0.0000 C   0  0  0  0  0  0  0  0  0  0  0  0
   -1.2601   -2.2601    0.0000 S   0  0  0  0  0  0  0  0  0  0  0  0
   -0.5909   -3.0032    0.0000 P   0  0  0  0  0  0  0  0  0  0  0  0
   -0.9000   -3.9543    0.0000 S   0  0  0  0  0  0  0  0  0  0  0  0
   -1.8781   -4.1622    0.0000 C   0  0  0  0  0  0  0  0  0  0  0  0
   -2.6213   -3.4931    0.0000 C   0  0  0  0  0  0  0  0  0  0  0  0
   -2.5167   -2.4985    0.0000 C   0  0  0  0  0  0  0  0  0  0  0  0
   -3.4873   -3.9931    0.0000 O   0  0  0  0  0  0  0  0  0  0  0  0
   -3.2794   -4.9712    0.0000 C   0  0  0  0  0  0  0  0  0  0  0  0
   -2.2848   -5.0757    0.0000 C   0  0  0  0  0  0  0  0  0  0  0  0
    0.3872   -2.7953    0.0000 S   0  0  0  0  0  0  0  0  0  0  0  0
    1.0563   -3.5385    0.0000 C   0  0  0  0  0  0  0  0  0  0  0  0
    2.0509   -3.4339    0.0000 C   0  0  0  0  0  0  0  0  0  0  0  0
    2.5509   -2.5679    0.0000 C   0  0  0  0  0  0  0  0  0  0  0  0
    2.4576   -4.3475    0.0000 O   0  0  0  0  0  0  0  0  0  0  0  0
    1.7144   -5.0166    0.0000 C   0  0  0  0  0  0  0  0  0  0  0  0
    0.8484   -4.5166    0.0000 C   0  0  0  0  0  0  0  0  0  0  0  0
   -1.5388   -0.5000    0.0000 C   0  0  0  0  0  0  0  0  0  0  0  0
   -0.9511    0.3090    0.0000 C   0  0  0  0  0  0  0  0  0  0  0  0
    0.0000    0.0000    0.0000 O   0  0  0  0  0  0  0  0  0  0  0  0
  1  2  1  0  0  0  0
  2 22  1  0  0  0  0
  2  3  2  0  0  0  0
  3  4  1  0  0  0  0
  3 20  1  0  0  0  0
  4  5  1  0  0  0  0
  5  6  1  0  0  0  0
  5 13  1  0  0  0  0
  6  7  1  0  0  0  0
  7 12  1  0  0  0  0
  7  8  2  0  0  0  0
  8  9  1  0  0  0  0
  8 10  1  0  0  0  0
 10 11  1  0  0  0  0
 11 12  2  0  0  0  0
 13 14  1  0  0  0  0
 14 19  1  0  0  0  0
 14 15  2  0  0  0  0
 15 16  1  0  0  0  0
 15 17  1  0  0  0  0
 17 18  1  0  0  0  0
 18 19  2  0  0  0  0
 20 21  2  0  0  0  0
 21 22  1  0  0  0  0
M  END
> <NMREDATA_VERSION>
1.1

> <NMREDATA_LEVEL>
0

> <NMREDATA_SOLVENT>
CDCl3

> <NMREDATA_FORMULA>
C15H15O3PS3

> <NMREDATA_SMILES>
Cc1occc1SP(Sc1ccoc1C)Sc1ccoc1C

> <NMREDATA_ASSIGNMENT>
P5, 136.80, 5

> <NMREDATA_1D_31P>
Larmor=162
136.80, L=P5

$$$$
