
 OpenBabel06112616472D

 40 47  0  0  1  0  0  0  0  0999 V2000
    0.8660   -1.5000    0.0000 C   0  0  0  0  0  0  0  0  0  0  0  0
    0.0000   -1.0000    0.0000 C   0  0  0  0  0  0  0  0  0  0  0  0
   -0.8660   -1.5000    0.0000 C   0  0  0  0  0  0  0  0  0  0  0  0
   -1.7321   -1.0000    0.0000 C   0  0  0  0  0  0  0  0  0  0  0  0
   -1.7321    0.0000    0.0000 C   0  0  0  0  0  0  0  0  0  0  0  0
   -2.5981    0.5000    0.0000 C   0  0  2  0  0  0  0  0  0  0  0  0
   -3.4641    0.0000    0.0000 C   0  0  0  0  0  0  0  0  0  0  0  0
   -4.3301    0.5000    0.0000 C   0  0  0  0  0  0  0  0  0  0  0  0
   -4.3301    1.5000    0.0000 C   0  0  0  0  0  0  0  0  0  0  0  0
   -5.1962    2.0000    0.0000 C   0  0  0  0  0  0  0  0  0  0  0  0
   -5.1962    3.0000    0.0000 C   0  0  0  0  0  0  0  0  0  0  0  0
   -4.3301    3.5000    0.0000 C   0  0  0  0  0  0  0  0  0  0  0  0
   -3.4641    3.0000    0.0000 C   0  0  0  0  0  0  0  0  0  0  0  0
   -3.4641    2.0000    0.0000 C   0  0  0  0  0  0  0  0  0  0  0  0
   -2.5981    1.5000    0.0000 N   0  0  0  0  0  0  0  0  0  0  0  0
   -1.7321    2.0000    0.0000 P   0  0  0  0  0  0  0  0  0  0  0  0
   -1.8068    2.9972    0.0000 O   0  0  0  0  0  0  0  0  0  0  0  0
   -1.0737    3.6774    0.0000 C   0  0  0  0  0  0  0  0  0  0  0  0
   -1.4391    4.6083    0.0000 C   0  0  0  0  0  0  0  0  0  0  0  0
   -0.8156    5.3901    0.0000 C   0  0  0  0  0  0  0  0  0  0  0  0
    0.1733    5.2410    0.0000 C   0  0  0  0  0  0  0  0  0  0  0  0
    0.7967    6.0229    0.0000 C   0  0  0  0  0  0  0  0  0  0  0  0
    1.7856    5.8738    0.0000 C   0  0  0  0  0  0  0  0  0  0  0  0
    2.1509    4.9430    0.0000 C   0  0  0  0  0  0  0  0  0  0  0  0
    1.5274    4.1611    0.0000 C   0  0  0  0  0  0  0  0  0  0  0  0
    0.5386    4.3102    0.0000 C   0  0  0  0  0  0  0  0  0  0  0  0
   -0.0849    3.5283    0.0000 C   0  0  0  0  0  0  0  0  0  0  0  0
    0.4151    2.6623    0.0000 C   0  0  0  0  0  0  0  0  0  0  0  0
    0.0498    1.7314    0.0000 C   0  0  0  0  0  0  0  0  0  0  0  0
    0.6733    0.9496    0.0000 C   0  0  0  0  0  0  0  0  0  0  0  0
    1.6621    1.0986    0.0000 C   0  0  0  0  0  0  0  0  0  0  0  0
    2.0274    2.0295    0.0000 C   0  0  0  0  0  0  0  0  0  0  0  0
    3.0163    2.1786    0.0000 C   0  0  0  0  0  0  0  0  0  0  0  0
    3.3816    3.1094    0.0000 C   0  0  0  0  0  0  0  0  0  0  0  0
    2.7581    3.8913    0.0000 C   0  0  0  0  0  0  0  0  0  0  0  0
    1.7693    3.7422    0.0000 C   0  0  0  0  0  0  0  0  0  0  0  0
    1.4039    2.8114    0.0000 C   0  0  0  0  0  0  0  0  0  0  0  0
   -0.9058    1.4367    0.0000 O   0  0  0  0  0  0  0  0  0  0  0  0
   -0.8660    0.5000    0.0000 C   0  0  0  0  0  0  0  0  0  0  0  0
    0.0000    0.0000    0.0000 C   0  0  0  0  0  0  0  0  0  0  0  0
  1  2  1  0  0  0  0
  2 40  2  0  0  0  0
  2  3  1  0  0  0  0
  3  4  2  0  0  0  0
  4  5  1  0  0  0  0
  5 39  2  0  0  0  0
  6  5  1  6  0  0  0
  6  7  1  0  0  0  0
  6 15  1  0  0  0  0
  7  8  1  0  0  0  0
  8  9  1  0  0  0  0
  9 14  2  0  0  0  0
  9 10  1  0  0  0  0
 10 11  2  0  0  0  0
 11 12  1  0  0  0  0
 12 13  2  0  0  0  0
 13 14  1  0  0  0  0
 14 15  1  0  0  0  0
 15 16  1  0  0  0  0
 16 38  1  0  0  0  0
 16 17  1  0  0  0  0
 17 18  1  0  0  0  0
 18 27  2  0  0  0  0
 18 19  1  0  0  0  0
 19 20  2  0  0  0  0
 20 21  1  0  0  0  0
 21 26  2  0  0  0  0
 21 22  1  0  0  0  0
 22 23  2  0  0  0  0
 23 24  1  0  0  0  0
 24 25  2  0  0  0  0
 25 26  1  0  0  0  0
 26 27  1  0  0  0  0
 27 28  1  0  0  0  0
 28 37  2  0  0  0  0
 28 29  1  0  0  0  0
 29 30  2  0  0  0  0
 29 38  1  0  0  0  0
 30 31  1  0  0  0  0
 31 32  2  0  0  0  0
 32 37  1  0  0  0  0
 32 33  1  0  0  0  0
 33 34  2  0  0  0  0
 34 35  1  0  0  0  0
 35 36  2  0  0  0  0
 36 37  1  0  0  0  0
 39 40  1  0  0  0  0
M  END
> <NMREDATA_VERSION>
1.1

> <NMREDATA_LEVEL>
0

> <NMREDATA_SOLVENT>
CDCl3

> <NMREDATA_FORMULA>
C36H28NO2P

> <NMREDATA_SMILES>
Cc1ccc(cc1)[C@@H]1CCc2c(N1p1oc3ccc4c(c3c3c(o1)ccc1c3cccc1)cccc4)cccc2

> <NMREDATA_ASSIGNMENT>
P16, 142.10, 16

> <NMREDATA_1D_31P>
Larmor=162
142.10, L=P16

$$$$
