
 OpenBabel06112616492D

 39 42  0  0  1  0  0  0  0  0999 V2000
    4.8837    0.7150    0.0000 C    0  0  0  0  0  0  0  0  0  0  0  0
    4.3953    1.5609    0.0000 C    0  0  0  0  0  0  0  0  0  0  0  0
    5.7296    0.2267    0.0000 C    0  0  0  0  0  0  0  0  0  0  0  0
    5.7296    1.2034    0.0000 C    0  0  0  0  0  0  0  0  0  0  0  0
    4.3953   -0.1309    0.0000 C    0  0  0  0  0  0  0  0  0  0  0  0
    4.8837   -0.9767    0.0000 C    0  0  0  0  0  0  0  0  0  0  0  0
    5.8605   -0.9767    0.0000 O    0  0  0  0  0  0  0  0  0  0  0  0
    4.3953   -1.8226    0.0000 C    0  0  0  0  0  0  0  0  0  0  0  0
    4.8837   -2.6685    0.0000 C    0  0  0  0  0  0  0  0  0  0  0  0
    5.7296   -3.1569    0.0000 C    0  0  0  0  0  0  0  0  0  0  0  0
    5.7296   -2.1801    0.0000 C    0  0  0  0  0  0  0  0  0  0  0  0
    4.3953   -3.5144    0.0000 C    0  0  0  0  0  0  0  0  0  0  0  0
    3.4186   -1.8226    0.0000 C    0  0  0  0  0  0  0  0  0  0  0  0
    2.9302   -0.9767    0.0000 C    0  0  0  0  0  0  0  0  0  0  0  0
    1.9535   -0.9767    0.0000 C    0  0  1  0  0  0  0  0  0  0  0  0
    1.9535    0.0000    0.0000 C    0  0  0  0  0  0  0  0  0  0  0  0
    2.7994    0.4884    0.0000 C    0  0  0  0  0  0  0  0  0  0  0  0
    2.7994    1.4651    0.0000 C    0  0  0  0  0  0  0  0  0  0  0  0
    3.6453    1.9535    0.0000 Br   0  0  0  0  0  0  0  0  0  0  0  0
    1.9535    1.9535    0.0000 C    0  0  0  0  0  0  0  0  0  0  0  0
    1.1076    1.4651    0.0000 C    0  0  0  0  0  0  0  0  0  0  0  0
    1.1076    0.4884    0.0000 C    0  0  0  0  0  0  0  0  0  0  0  0
    0.0000   -0.9767    0.0000 P    0  0  0  0  0  0  0  0  0  0  0  0
    0.0000   -1.9535    0.0000 C    0  0  0  0  0  0  0  0  0  0  0  0
   -0.8459   -2.4419    0.0000 C    0  0  0  0  0  0  0  0  0  0  0  0
   -0.8459   -3.4186    0.0000 C    0  0  0  0  0  0  0  0  0  0  0  0
    0.0000   -3.9070    0.0000 C    0  0  0  0  0  0  0  0  0  0  0  0
    0.8459   -3.4186    0.0000 C    0  0  0  0  0  0  0  0  0  0  0  0
    0.8459   -2.4419    0.0000 C    0  0  0  0  0  0  0  0  0  0  0  0
   -0.9767   -0.9767    0.0000 C    0  0  0  0  0  0  0  0  0  0  0  0
   -1.4651   -0.1309    0.0000 C    0  0  0  0  0  0  0  0  0  0  0  0
   -2.4419   -0.1309    0.0000 C    0  0  0  0  0  0  0  0  0  0  0  0
   -2.9302   -0.9767    0.0000 C    0  0  0  0  0  0  0  0  0  0  0  0
   -2.4419   -1.8226    0.0000 C    0  0  0  0  0  0  0  0  0  0  0  0
   -1.4651   -1.8226    0.0000 C    0  0  0  0  0  0  0  0  0  0  0  0
    0.0000    0.0000    0.0000 O    0  0  0  0  0  0  0  0  0  0  0  0
    1.9535   -1.9535    0.0000 C    0  0  0  0  0  0  0  0  0  0  0  0
    1.9535   -2.9302    0.0000 N    0  0  0  0  0  0  0  0  0  0  0  0
    3.4186   -0.1309    0.0000 C    0  0  0  0  0  0  0  0  0  0  0  0
  1  2  1  0  0  0  0
  1  3  1  0  0  0  0
  1  4  1  0  0  0  0
  1  5  1  0  0  0  0
  5 39  2  0  0  0  0
  5  6  1  0  0  0  0
  6  7  1  0  0  0  0
  6  8  2  0  0  0  0
  8  9  1  0  0  0  0
  8 13  1  0  0  0  0
  9 10  1  0  0  0  0
  9 11  1  0  0  0  0
  9 12  1  0  0  0  0
 13 14  2  0  0  0  0
 14 15  1  0  0  0  0
 14 39  1  0  0  0  0
 15 16  1  0  0  0  0
 15 23  1  0  0  0  0
 15 37  1  1  0  0  0
 16 22  2  0  0  0  0
 16 17  1  0  0  0  0
 17 18  2  0  0  0  0
 18 19  1  0  0  0  0
 18 20  1  0  0  0  0
 20 21  2  0  0  0  0
 21 22  1  0  0  0  0
 23 24  1  0  0  0  0
 23 30  1  0  0  0  0
 23 36  2  0  0  0  0
 24 29  2  0  0  0  0
 24 25  1  0  0  0  0
 25 26  2  0  0  0  0
 26 27  1  0  0  0  0
 27 28  2  0  0  0  0
 28 29  1  0  0  0  0
 30 35  2  0  0  0  0
 30 31  1  0  0  0  0
 31 32  2  0  0  0  0
 32 33  1  0  0  0  0
 33 34  2  0  0  0  0
 34 35  1  0  0  0  0
 37 38  3  0  0  0  0
M  END
> <NMREDATA_VERSION>
1.1

> <NMREDATA_LEVEL>
0

> <NMREDATA_SOLVENT>
CDCl3

> <NMREDATA_FORMULA>
C34H35BrNO2P

> <NMREDATA_SMILES>
N#C[C@](P(=O)(c1ccccc1)c1ccccc1)(c1cc(c(c(c1)C(C)(C)C)O)C(C)(C)C)c1cccc(c1)Br

> <NMREDATA_ASSIGNMENT>
P23, 31.50, 23

> <NMREDATA_1D_31P>
Larmor=162
31.50, L=P23

$$$$
