
 OpenBabel06112616452D

 17 16  0  0  0  0  0  0  0  0999 V2000
    1.0000   -1.0000    0.0000 C    0  0  0  0  0  0  0  0  0  0  0  0
    1.0000    0.0000    0.0000 Si   0  0  0  0  0  0  0  0  0  0  0  0
    2.0000    0.0000    0.0000 C    0  0  0  0  0  0  0  0  0  0  0  0
    1.0000    1.0000    0.0000 C    0  0  0  0  0  0  0  0  0  0  0  0
    0.0000    0.0000    0.0000 C    0  0  0  0  0  0  0  0  0  0  0  0
    0.1340   -1.5000    0.0000 Si   0  0  0  0  0  0  0  0  0  0  0  0
   -0.3660   -0.6340    0.0000 C    0  0  0  0  0  0  0  0  0  0  0  0
   -0.7321   -2.0000    0.0000 C    0  0  0  0  0  0  0  0  0  0  0  0
    0.6340   -2.3660    0.0000 C    0  0  0  0  0  0  0  0  0  0  0  0
    1.8660   -1.5000    0.0000 P    0  0  0  0  0  0  0  0  0  0  0  0
    1.3660   -2.3660    0.0000 O    0  0  0  0  0  0  0  0  0  0  0  0
    2.7321   -2.0000    0.0000 O    0  0  0  0  0  0  0  0  0  0  0  0
    2.7321   -3.0000    0.0000 C    0  0  0  0  0  0  0  0  0  0  0  0
    3.5981   -3.5000    0.0000 C    0  0  0  0  0  0  0  0  0  0  0  0
    2.3660   -0.6340    0.0000 O    0  0  0  0  0  0  0  0  0  0  0  0
    3.3660   -0.6340    0.0000 C    0  0  0  0  0  0  0  0  0  0  0  0
    3.8660   -1.5000    0.0000 C    0  0  0  0  0  0  0  0  0  0  0  0
  1  2  1  0  0  0  0
  1  6  1  0  0  0  0
  1 10  1  0  0  0  0
  2  3  1  0  0  0  0
  2  4  1  0  0  0  0
  2  5  1  0  0  0  0
  6  7  1  0  0  0  0
  6  8  1  0  0  0  0
  6  9  1  0  0  0  0
 10 11  2  0  0  0  0
 10 12  1  0  0  0  0
 10 15  1  0  0  0  0
 12 13  1  0  0  0  0
 13 14  1  0  0  0  0
 15 16  1  0  0  0  0
 16 17  1  0  0  0  0
M  END
> <NMREDATA_VERSION>
1.1

> <NMREDATA_LEVEL>
0

> <NMREDATA_SOLVENT>
CDCl3

> <NMREDATA_FORMULA>
C11H29O3PSi2

> <NMREDATA_SMILES>
CCOP(=O)(C([Si](C)(C)C)[Si](C)(C)C)OCC

> <NMREDATA_ASSIGNMENT>
P10, 34.23, 10

> <NMREDATA_1D_31P>
Larmor=162
34.23, L=P10

$$$$
