
 OpenBabel06112616452D

 40 46  0  0  1  0  0  0  0  0999 V2000
    2.2841    0.3943    0.0000 C   0  0  0  0  0  0  0  0  0  0  0  0
    1.7841   -0.4717    0.0000 C   0  0  0  0  0  0  0  0  0  0  0  0
    0.7896   -0.5762    0.0000 C   0  0  0  0  0  0  0  0  0  0  0  0
    0.5817   -1.5544    0.0000 N   0  0  0  0  0  0  0  0  0  0  0  0
    1.4477   -2.0544    0.0000 C   0  0  0  0  0  0  0  0  0  0  0  0
    1.6556   -3.0325    0.0000 C   0  0  0  0  0  0  0  0  0  0  0  0
    2.6067   -3.3415    0.0000 C   0  0  0  0  0  0  0  0  0  0  0  0
    3.3498   -2.6724    0.0000 C   0  0  0  0  0  0  0  0  0  0  0  0
    4.3009   -2.9814    0.0000 F   0  0  0  0  0  0  0  0  0  0  0  0
    3.1419   -1.6943    0.0000 C   0  0  0  0  0  0  0  0  0  0  0  0
    2.1909   -1.3852    0.0000 C   0  0  0  0  0  0  0  0  0  0  0  0
   -0.4128   -1.6589    0.0000 C   0  0  0  0  0  0  0  0  0  0  0  0
   -0.9128   -2.5249    0.0000 O   0  0  0  0  0  0  0  0  0  0  0  0
   -0.8196   -0.7454    0.0000 C   0  0  2  0  0  0  0  0  0  0  0  0
   -1.7977   -0.5374    0.0000 P   0  0  0  0  0  0  0  0  0  0  0  0
   -2.0056   -1.5156    0.0000 O   0  0  0  0  0  0  0  0  0  0  0  0
   -2.7759   -0.3295    0.0000 C   0  0  0  0  0  0  0  0  0  0  0  0
   -3.0849    0.6215    0.0000 C   0  0  0  0  0  0  0  0  0  0  0  0
   -4.0630    0.8294    0.0000 C   0  0  0  0  0  0  0  0  0  0  0  0
   -4.7322    0.0863    0.0000 C   0  0  0  0  0  0  0  0  0  0  0  0
   -4.4232   -0.8648    0.0000 C   0  0  0  0  0  0  0  0  0  0  0  0
   -3.4450   -1.0727    0.0000 C   0  0  0  0  0  0  0  0  0  0  0  0
   -1.5898    0.4407    0.0000 C   0  0  0  0  0  0  0  0  0  0  0  0
   -0.6388    0.7497    0.0000 C   0  0  0  0  0  0  0  0  0  0  0  0
   -0.4308    1.7279    0.0000 C   0  0  0  0  0  0  0  0  0  0  0  0
   -1.1740    2.3970    0.0000 C   0  0  0  0  0  0  0  0  0  0  0  0
   -2.1250    2.0880    0.0000 C   0  0  0  0  0  0  0  0  0  0  0  0
   -2.3330    1.1098    0.0000 C   0  0  0  0  0  0  0  0  0  0  0  0
   -0.0764   -0.0762    0.0000 C   0  0  1  0  0  0  0  0  0  0  0  0
   -0.8660   -0.5000    0.0000 C   0  0  0  0  0  0  0  0  0  0  0  0
   -1.7321    0.0000    0.0000 C   0  0  0  0  0  0  0  0  0  0  0  0
   -1.7321    1.0000    0.0000 C   0  0  0  0  0  0  0  0  0  0  0  0
   -0.8660    1.5000    0.0000 C   0  0  0  0  0  0  0  0  0  0  0  0
    0.0000    1.0000    0.0000 C   0  0  0  0  0  0  0  0  0  0  0  0
    0.0000    0.0000    0.0000 C   0  0  0  0  0  0  0  0  0  0  0  0
    3.2841    0.3943    0.0000 C   0  0  0  0  0  0  0  0  0  0  0  0
    3.7841    1.2604    0.0000 C   0  0  0  0  0  0  0  0  0  0  0  0
    3.2841    2.1264    0.0000 C   0  0  0  0  0  0  0  0  0  0  0  0
    2.2841    2.1264    0.0000 C   0  0  0  0  0  0  0  0  0  0  0  0
    1.7841    1.2604    0.0000 C   0  0  0  0  0  0  0  0  0  0  0  0
  1 40  2  0  0  0  0
  1  2  1  0  0  0  0
  1 36  1  0  0  0  0
  2 11  1  0  0  0  0
  2  3  2  0  0  0  0
  3 29  1  0  0  0  0
  3  4  1  0  0  0  0
  4  5  1  0  0  0  0
  4 12  1  0  0  0  0
  5 11  2  0  0  0  0
  5  6  1  0  0  0  0
  6  7  2  0  0  0  0
  7  8  1  0  0  0  0
  8  9  1  0  0  0  0
  8 10  2  0  0  0  0
 10 11  1  0  0  0  0
 12 13  2  0  0  0  0
 12 14  1  0  0  0  0
 14 15  1  6  0  0  0
 14 29  1  0  0  0  0
 15 16  2  0  0  0  0
 15 17  1  0  0  0  0
 15 23  1  0  0  0  0
 17 22  2  0  0  0  0
 17 18  1  0  0  0  0
 18 19  2  0  0  0  0
 19 20  1  0  0  0  0
 20 21  2  0  0  0  0
 21 22  1  0  0  0  0
 23 28  2  0  0  0  0
 23 24  1  0  0  0  0
 24 25  2  0  0  0  0
 25 26  1  0  0  0  0
 26 27  2  0  0  0  0
 27 28  1  0  0  0  0
 29 30  1  1  0  0  0
 30 35  2  0  0  0  0
 30 31  1  0  0  0  0
 31 32  2  0  0  0  0
 32 33  1  0  0  0  0
 33 34  2  0  0  0  0
 34 35  1  0  0  0  0
 36 37  2  0  0  0  0
 37 38  1  0  0  0  0
 38 39  2  0  0  0  0
 39 40  1  0  0  0  0
M  END
> <NMREDATA_VERSION>
1.1

> <NMREDATA_LEVEL>
0

> <NMREDATA_SOLVENT>
CDCl3

> <NMREDATA_FORMULA>
C35H25FNO2P

> <NMREDATA_SMILES>
Fc1ccc2c(c1)c(c1ccccc1)c1n2C(=O)[C@@H]([C@H]1c1ccccc1)P(=O)(c1ccccc1)c1ccccc1

> <NMREDATA_ASSIGNMENT>
P15, 30.01, 15

> <NMREDATA_1D_31P>
Larmor=200
30.01, L=P15

$$$$
