
 OpenBabel06112616482D

 33 39  0  0  1  0  0  0  0  0999 V2000
   -2.2692    0.3758    0.0000 C   0  0  0  0  0  0  0  0  0  0  0  0
   -1.3782   -0.0782    0.0000 C   0  0  3  0  0  0  0  0  0  0  0  0
   -2.1019   -0.3436    0.0000 C   0  0  0  0  0  0  0  0  0  0  0  0
   -2.7607    0.0567    0.0000 C   0  0  3  0  0  0  0  0  0  0  0  0
   -2.8584    0.8213    0.0000 C   0  0  0  0  0  0  0  0  0  0  0  0
   -2.3216    1.3745    0.0000 C   0  0  3  0  0  0  0  0  0  0  0  0
   -1.4829    1.9191    0.0000 C   0  0  0  0  0  0  0  0  0  0  0  0
   -0.5919    1.4651    0.0000 C   0  0  3  0  0  0  0  0  0  0  0  0
   -1.1200   -2.3565    0.0000 C   0  0  0  0  0  0  0  0  0  0  0  0
   -1.2247   -1.3602    0.0000 C   0  0  0  0  0  0  0  0  0  0  0  0
   -2.0923   -0.8593    0.0000 P   0  0  0  0  0  0  0  0  0  0  0  0
   -2.0923    0.1425    0.0000 C   0  0  0  0  0  0  0  0  0  0  0  0
   -2.9599    0.6433    0.0000 C   0  0  0  0  0  0  0  0  0  0  0  0
   -2.9599    1.6451    0.0000 C   0  0  0  0  0  0  0  0  0  0  0  0
   -2.0923    2.1460    0.0000 C   0  0  0  0  0  0  0  0  0  0  0  0
   -1.2247    1.6451    0.0000 C   0  0  0  0  0  0  0  0  0  0  0  0
   -1.2247    0.6433    0.0000 C   0  0  0  0  0  0  0  0  0  0  0  0
   -2.9599   -1.3602    0.0000 C   0  0  0  0  0  0  0  0  0  0  0  0
   -2.9599   -2.3620    0.0000 C   0  0  0  0  0  0  0  0  0  0  0  0
   -3.8274   -2.8629    0.0000 C   0  0  0  0  0  0  0  0  0  0  0  0
   -4.6950   -2.3620    0.0000 C   0  0  0  0  0  0  0  0  0  0  0  0
   -4.6950   -1.3602    0.0000 C   0  0  0  0  0  0  0  0  0  0  0  0
   -3.8274   -0.8593    0.0000 C   0  0  0  0  0  0  0  0  0  0  0  0
   -0.3096   -0.9527    0.0000 C   0  0  0  0  0  0  0  0  0  0  0  0
    0.3608   -1.6972    0.0000 C   0  0  0  0  0  0  0  0  0  0  0  0
   -0.1401   -2.5648    0.0000 N   0  0  0  0  0  0  0  0  0  0  0  0
    0.2673   -3.4799    0.0000 C   0  0  0  0  0  0  0  0  0  0  0  0
    1.3406   -1.4889    0.0000 C   0  0  0  0  0  0  0  0  0  0  0  0
    1.6502   -0.5362    0.0000 C   0  0  0  0  0  0  0  0  0  0  0  0
    0.9799    0.2083    0.0000 C   0  0  0  0  0  0  0  0  0  0  0  0
    0.0000    0.0000    0.0000 C   0  0  0  0  0  0  0  0  0  0  0  0
   -0.5395    0.4665    0.0000 C   0  0  0  0  0  0  0  0  0  0  0  0
   -1.2697    0.1348    0.0000 C   0  0  0  0  0  0  0  0  0  0  0  0
  1  6  1  0  0  0  0
  1  2  1  0  0  0  0
  2 32  1  0  0  0  0
  2  3  1  0  0  0  0
  3  4  1  0  0  0  0
  4 33  1  0  0  0  0
  4  5  1  0  0  0  0
  5  6  1  0  0  0  0
  6  7  1  0  0  0  0
  7  8  1  0  0  0  0
  8  9  1  0  0  0  0
  8 32  1  0  0  0  0
  8 33  1  0  0  0  0
  9 26  1  0  0  0  0
  9 10  2  0  0  0  0
 10 11  1  0  0  0  0
 10 24  1  0  0  0  0
 11 12  1  0  0  0  0
 11 18  1  0  0  0  0
 12 17  2  0  0  0  0
 12 13  1  0  0  0  0
 13 14  2  0  0  0  0
 14 15  1  0  0  0  0
 15 16  2  0  0  0  0
 16 17  1  0  0  0  0
 18 23  2  0  0  0  0
 18 19  1  0  0  0  0
 19 20  2  0  0  0  0
 20 21  1  0  0  0  0
 21 22  2  0  0  0  0
 22 23  1  0  0  0  0
 24 31  2  0  0  0  0
 24 25  1  0  0  0  0
 25 26  1  0  0  0  0
 25 28  2  0  0  0  0
 26 27  1  0  0  0  0
 28 29  1  0  0  0  0
 29 30  2  0  0  0  0
 30 31  1  0  0  0  0
M  END
> <NMREDATA_VERSION>
1.1

> <NMREDATA_LEVEL>
0

> <NMREDATA_SOLVENT>
C6D6

> <NMREDATA_FORMULA>
C31H32NP

> <NMREDATA_SMILES>
Cn1c2ccccc2c(c1C12CC3CC(C2)CC(C1)C3)P(c1ccccc1)c1ccccc1

> <NMREDATA_ASSIGNMENT>
P11, -26.10, 11

> <NMREDATA_1D_31P>
Larmor=162
-26.10, L=P11

$$$$
