
 OpenBabel06112616492D

 30 34  0  0  0  0  0  0  0  0999 V2000
   -2.4027   -0.8708    0.0000 C   0  0  0  0  0  0  0  0  0  0  0  0
   -1.7878   -0.1879    0.0000 C   0  0  0  0  0  0  0  0  0  0  0  0
   -1.5039   -1.0619    0.0000 C   0  0  0  0  0  0  0  0  0  0  0  0
   -2.4707    0.4270    0.0000 C   0  0  0  0  0  0  0  0  0  0  0  0
   -0.9139    0.0961    0.0000 P   0  0  1  0  0  0  0  0  0  0  0  0
   -1.1049   -0.8028    0.0000 O   0  0  0  0  0  0  0  0  0  0  0  0
   -1.1049    0.9949    0.0000 C   0  0  0  0  0  0  0  0  0  0  0  0
   -1.9007    1.4544    0.0000 C   0  0  0  0  0  0  0  0  0  0  0  0
   -5.0840   -0.3835    0.0000 C   0  0  0  0  0  0  0  0  0  0  0  0
   -5.0840   -1.3024    0.0000 C   0  0  0  0  0  0  0  0  0  0  0  0
   -4.2882   -1.7619    0.0000 O   0  0  0  0  0  0  0  0  0  0  0  0
   -4.2882   -2.6808    0.0000 C   0  0  0  0  0  0  0  0  0  0  0  0
   -5.8798   -1.7619    0.0000 C   0  0  0  0  0  0  0  0  0  0  0  0
   -5.8798   -2.6808    0.0000 C   0  0  0  0  0  0  0  0  0  0  0  0
   -5.4203   -3.4766    0.0000 C   0  0  0  0  0  0  0  0  0  0  0  0
   -6.3392   -3.4766    0.0000 C   0  0  0  0  0  0  0  0  0  0  0  0
   -6.6756   -1.3024    0.0000 C   0  0  0  0  0  0  0  0  0  0  0  0
   -6.6756   -0.3835    0.0000 C   0  0  0  0  0  0  0  0  0  0  0  0
   -7.4714    0.0760    0.0000 C   0  0  0  0  0  0  0  0  0  0  0  0
   -8.3903    0.0760    0.0000 C   0  0  0  0  0  0  0  0  0  0  0  0
   -7.9309    0.8718    0.0000 C   0  0  0  0  0  0  0  0  0  0  0  0
   -5.8798    0.0760    0.0000 C   0  0  0  0  0  0  0  0  0  0  0  0
   -5.8798    0.9949    0.0000 O   0  0  0  0  0  0  0  0  0  0  0  0
   -5.0840    1.4544    0.0000 C   0  0  0  0  0  0  0  0  0  0  0  0
   -1.9007    2.3733    0.0000 C   0  0  0  0  0  0  0  0  0  0  0  0
   -1.1049    2.8327    0.0000 C   0  0  0  0  0  0  0  0  0  0  0  0
   -0.3091    2.3733    0.0000 C   0  0  0  0  0  0  0  0  0  0  0  0
   -0.3091    1.4544    0.0000 C   0  0  0  0  0  0  0  0  0  0  0  0
    0.3738    0.8395    0.0000 O   0  0  0  0  0  0  0  0  0  0  0  0
    0.0000    0.0000    0.0000 C   0  0  0  0  0  0  0  0  0  0  0  0
  1  2  1  0  0  0  0
  2  3  1  0  0  0  0
  2  4  1  0  0  0  0
  2  5  1  0  0  0  0
  5 30  1  0  0  0  0
  5  6  2  6  0  0  0
  5  7  1  0  0  0  0
  7 28  2  0  0  0  0
  7  8  1  0  0  0  0
  8  9  1  0  0  0  0
  8 25  2  0  0  0  0
  9 22  2  0  0  0  0
  9 10  1  0  0  0  0
 10 11  1  0  0  0  0
 10 13  2  0  0  0  0
 11 12  1  0  0  0  0
 13 14  1  0  0  0  0
 13 17  1  0  0  0  0
 14 16  1  0  0  0  0
 14 15  1  0  0  0  0
 15 16  1  0  0  0  0
 17 18  2  0  0  0  0
 18 19  1  0  0  0  0
 18 22  1  0  0  0  0
 19 21  1  0  0  0  0
 19 20  1  0  0  0  0
 20 21  1  0  0  0  0
 22 23  1  0  0  0  0
 23 24  1  0  0  0  0
 25 26  1  0  0  0  0
 26 27  2  0  0  0  0
 27 28  1  0  0  0  0
 28 29  1  0  0  0  0
 29 30  1  0  0  0  0
M  END
> <NMREDATA_VERSION>
1.1

> <NMREDATA_LEVEL>
0

> <NMREDATA_SOLVENT>
CDCl3

> <NMREDATA_FORMULA>
C25H31O4P

> <NMREDATA_SMILES>
COc1c(cc(c(c1c1cccc2c1[P@@](=O)(CO2)C(C)(C)C)OC)C1CC1)C1CC1

> <NMREDATA_ASSIGNMENT>
P5, 62.54, 5

> <NMREDATA_1D_31P>
Larmor=202
62.54, L=P5

$$$$
