
 OpenBabel06112616452D

 35 39  0  0  0  0  0  0  0  0999 V2000
   -1.6312    0.4371    0.0000 O   0  0  0  0  0  0  0  0  0  0  0  0
   -0.6894    0.6894    0.0000 C   0  0  0  0  0  0  0  0  0  0  0  0
   -0.4371    1.6312    0.0000 C   0  0  0  0  0  0  0  0  0  0  0  0
    0.5047    1.8836    0.0000 C   0  0  0  0  0  0  0  0  0  0  0  0
    1.1941    1.1941    0.0000 C   0  0  0  0  0  0  0  0  0  0  0  0
    0.9418    0.2523    0.0000 C   0  0  0  0  0  0  0  0  0  0  0  0
    2.3206   -1.1265    0.0000 P   0  0  2  0  0  0  0  0  0  0  0  0
    3.2214   -0.7534    0.0000 O   0  0  0  0  0  0  0  0  0  0  0  0
    3.1650   -1.6140    0.0000 N   0  0  0  0  0  0  0  0  0  0  0  0
    4.0094   -1.1265    0.0000 C   0  0  0  0  0  0  0  0  0  0  0  0
    4.8538   -1.6140    0.0000 C   0  0  0  0  0  0  0  0  0  0  0  0
    5.6981   -1.1265    0.0000 C   0  0  0  0  0  0  0  0  0  0  0  0
    5.6981   -0.1515    0.0000 C   0  0  0  0  0  0  0  0  0  0  0  0
    4.8538    0.3360    0.0000 C   0  0  0  0  0  0  0  0  0  0  0  0
    4.8538    1.3110    0.0000 C   0  0  0  0  0  0  0  0  0  0  0  0
    4.0094    1.7985    0.0000 C   0  0  0  0  0  0  0  0  0  0  0  0
    3.1650    1.3110    0.0000 C   0  0  0  0  0  0  0  0  0  0  0  0
    3.1650    0.3360    0.0000 N   0  0  0  0  0  0  0  0  0  0  0  0
    4.0094   -0.1515    0.0000 C   0  0  0  0  0  0  0  0  0  0  0  0
    3.1650   -2.5890    0.0000 C   0  0  0  0  0  0  0  0  0  0  0  0
    4.0094   -3.0765    0.0000 C   0  0  0  0  0  0  0  0  0  0  0  0
    4.8538   -2.5890    0.0000 C   0  0  0  0  0  0  0  0  0  0  0  0
    2.3206   -3.0765    0.0000 C   0  0  0  0  0  0  0  0  0  0  0  0
    2.3206   -4.0515    0.0000 C   0  0  0  0  0  0  0  0  0  0  0  0
    1.4763   -4.5390    0.0000 C   0  0  0  0  0  0  0  0  0  0  0  0
    1.4763   -2.5890    0.0000 C   0  0  0  0  0  0  0  0  0  0  0  0
    0.6319   -3.0765    0.0000 C   0  0  0  0  0  0  0  0  0  0  0  0
   -0.2125   -2.5890    0.0000 C   0  0  0  0  0  0  0  0  0  0  0  0
   -0.2125   -1.6140    0.0000 C   0  0  0  0  0  0  0  0  0  0  0  0
   -1.0569   -1.1265    0.0000 O   0  0  0  0  0  0  0  0  0  0  0  0
   -1.9012   -1.6140    0.0000 C   0  0  0  0  0  0  0  0  0  0  0  0
    0.6319   -1.1265    0.0000 C   0  0  0  0  0  0  0  0  0  0  0  0
    1.4763   -1.6140    0.0000 C   0  0  0  0  0  0  0  0  0  0  0  0
    0.0000    0.0000    0.0000 C   0  0  0  0  0  0  0  0  0  0  0  0
   -2.3206    1.1265    0.0000 C   0  0  0  0  0  0  0  0  0  0  0  0
  1  2  1  0  0  0  0
  1 35  1  0  0  0  0
  2 34  2  0  0  0  0
  2  3  1  0  0  0  0
  3  4  2  0  0  0  0
  4  5  1  0  0  0  0
  5  6  2  0  0  0  0
  6  7  1  0  0  0  0
  6 34  1  0  0  0  0
  7 33  1  0  0  0  0
  7  8  2  1  0  0  0
  7  9  1  0  0  0  0
  9 10  1  0  0  0  0
  9 20  1  0  0  0  0
 10 19  2  0  0  0  0
 10 11  1  0  0  0  0
 11 12  2  0  0  0  0
 12 13  1  0  0  0  0
 13 14  2  0  0  0  0
 14 19  1  0  0  0  0
 14 15  1  0  0  0  0
 15 16  2  0  0  0  0
 16 17  1  0  0  0  0
 17 18  2  0  0  0  0
 18 19  1  0  0  0  0
 20 21  1  0  0  0  0
 20 23  2  0  0  0  0
 21 22  1  0  0  0  0
 23 24  1  0  0  0  0
 23 26  1  0  0  0  0
 24 25  1  0  0  0  0
 26 33  2  0  0  0  0
 26 27  1  0  0  0  0
 27 28  2  0  0  0  0
 28 29  1  0  0  0  0
 29 30  1  0  0  0  0
 29 32  2  0  0  0  0
 30 31  1  0  0  0  0
 32 33  1  0  0  0  0
M  END
> <NMREDATA_VERSION>
1.1

> <NMREDATA_LEVEL>
0

> <NMREDATA_SOLVENT>
CDCl3

> <NMREDATA_FORMULA>
C29H29N2O3P

> <NMREDATA_SMILES>
COc1cccc(c1)[P@@]1(=O)c2cc(OC)ccc2C(=C(N1c1cccc2c1nccc2)CC)CC

> <NMREDATA_ASSIGNMENT>
P7, 16.61, 7

> <NMREDATA_1D_31P>
Larmor=162
16.61, L=P7

$$$$
