
 OpenBabel06112616462D

 39 42  0  0  1  0  0  0  0  0999 V2000
   -4.3953    1.5609    0.0000 N   0  3  0  0  0  0  0  0  0  0  0  0
   -3.4186    1.5609    0.0000 C   0  0  0  0  0  0  0  0  0  0  0  0
   -2.9302    2.4068    0.0000 C   0  0  0  0  0  0  0  0  0  0  0  0
   -1.9535    2.4068    0.0000 C   0  0  0  0  0  0  0  0  0  0  0  0
   -1.4651    1.5609    0.0000 C   0  0  0  0  0  0  0  0  0  0  0  0
   -1.9535    0.7150    0.0000 C   0  0  0  0  0  0  0  0  0  0  0  0
   -0.9767   -0.9767    0.0000 C   0  0  3  0  0  0  0  0  0  0  0  0
   -1.4651   -1.8226    0.0000 C   0  0  0  0  0  0  0  0  0  0  0  0
   -0.9767   -2.6685    0.0000 C   0  0  0  0  0  0  0  0  0  0  0  0
   -1.4651   -3.5144    0.0000 C   0  0  0  0  0  0  0  0  0  0  0  0
   -0.9767   -4.3603    0.0000 C   0  0  0  0  0  0  0  0  0  0  0  0
   -0.1309   -4.8487    0.0000 C   0  0  0  0  0  0  0  0  0  0  0  0
   -0.1309   -3.8719    0.0000 C   0  0  0  0  0  0  0  0  0  0  0  0
   -1.4651   -5.2062    0.0000 C   0  0  0  0  0  0  0  0  0  0  0  0
   -2.4419   -3.5144    0.0000 C   0  0  0  0  0  0  0  0  0  0  0  0
   -2.9302   -4.3603    0.0000 O   0  0  0  0  0  0  0  0  0  0  0  0
   -2.9302   -2.6685    0.0000 C   0  0  0  0  0  0  0  0  0  0  0  0
   -3.9070   -2.6685    0.0000 C   0  0  0  0  0  0  0  0  0  0  0  0
   -4.7529   -3.1569    0.0000 C   0  0  0  0  0  0  0  0  0  0  0  0
   -3.9070   -3.6453    0.0000 C   0  0  0  0  0  0  0  0  0  0  0  0
   -4.3953   -1.8226    0.0000 C   0  0  0  0  0  0  0  0  0  0  0  0
   -2.4419   -1.8226    0.0000 C   0  0  0  0  0  0  0  0  0  0  0  0
    0.0000   -0.9767    0.0000 P   0  0  0  0  0  0  0  0  0  0  0  0
    0.0000   -1.9535    0.0000 O   0  0  0  0  0  0  0  0  0  0  0  0
    0.9767   -0.9767    0.0000 C   0  0  0  0  0  0  0  0  0  0  0  0
    1.4651   -0.1309    0.0000 C   0  0  0  0  0  0  0  0  0  0  0  0
    2.4419   -0.1309    0.0000 C   0  0  0  0  0  0  0  0  0  0  0  0
    2.9302   -0.9767    0.0000 C   0  0  0  0  0  0  0  0  0  0  0  0
    2.4419   -1.8226    0.0000 C   0  0  0  0  0  0  0  0  0  0  0  0
    1.4651   -1.8226    0.0000 C   0  0  0  0  0  0  0  0  0  0  0  0
    0.0000    0.0000    0.0000 C   0  0  0  0  0  0  0  0  0  0  0  0
   -0.8459    0.4884    0.0000 C   0  0  0  0  0  0  0  0  0  0  0  0
   -0.8459    1.4651    0.0000 C   0  0  0  0  0  0  0  0  0  0  0  0
    0.0000    1.9535    0.0000 C   0  0  0  0  0  0  0  0  0  0  0  0
    0.8459    1.4651    0.0000 C   0  0  0  0  0  0  0  0  0  0  0  0
    0.8459    0.4884    0.0000 C   0  0  0  0  0  0  0  0  0  0  0  0
   -2.9302    0.7150    0.0000 C   0  0  0  0  0  0  0  0  0  0  0  0
   -4.8837    2.4068    0.0000 O   0  0  0  0  0  0  0  0  0  0  0  0
   -4.8837    0.7150    0.0000 O   0  5  0  0  0  0  0  0  0  0  0  0
  1  2  1  0  0  0  0
  1 38  2  0  0  0  0
  1 39  1  0  0  0  0
  2 37  2  0  0  0  0
  2  3  1  0  0  0  0
  3  4  2  0  0  0  0
  4  5  1  0  0  0  0
  5  6  2  0  0  0  0
  6  7  1  0  0  0  0
  6 37  1  0  0  0  0
  7  8  1  0  0  0  0
  7 23  1  0  0  0  0
  8 22  2  0  0  0  0
  8  9  1  0  0  0  0
  9 10  2  0  0  0  0
 10 11  1  0  0  0  0
 10 15  1  0  0  0  0
 11 12  1  0  0  0  0
 11 13  1  0  0  0  0
 11 14  1  0  0  0  0
 15 16  1  0  0  0  0
 15 17  2  0  0  0  0
 17 18  1  0  0  0  0
 17 22  1  0  0  0  0
 18 19  1  0  0  0  0
 18 20  1  0  0  0  0
 18 21  1  0  0  0  0
 23 24  2  0  0  0  0
 23 25  1  0  0  0  0
 23 31  1  0  0  0  0
 25 30  2  0  0  0  0
 25 26  1  0  0  0  0
 26 27  2  0  0  0  0
 27 28  1  0  0  0  0
 28 29  2  0  0  0  0
 29 30  1  0  0  0  0
 31 36  2  0  0  0  0
 31 32  1  0  0  0  0
 32 33  2  0  0  0  0
 33 34  1  0  0  0  0
 34 35  2  0  0  0  0
 35 36  1  0  0  0  0
M  END
> <NMREDATA_VERSION>
1.1

> <NMREDATA_LEVEL>
0

> <NMREDATA_SOLVENT>
CDCl3

> <NMREDATA_FORMULA>
C33H36NO4P

> <NMREDATA_SMILES>
Oc1c(cc(cc1C(C)(C)C)C(P(=O)(c1ccccc1)c1ccccc1)c1cccc(c1)[N+](=O)[O-])C(C)(C)C

> <NMREDATA_ASSIGNMENT>
P23, 30.90, 23

> <NMREDATA_1D_31P>
Larmor=160
30.90, L=P23

$$$$
