
 OpenBabel06112616472D

 51 54  0  0  1  0  0  0  0  0999 V2000
    2.7321    0.0000    0.0000 C   0  0  2  0  0  0  0  0  0  0  0  0
    1.8660    0.5000    0.0000 O   0  0  0  0  0  0  0  0  0  0  0  0
    3.5981    0.5000    0.0000 C   0  0  1  0  0  0  0  0  0  0  0  0
    3.5981    1.5000    0.0000 O   0  0  0  0  0  0  0  0  0  0  0  0
    4.4641    0.0000    0.0000 C   0  0  1  0  0  0  0  0  0  0  0  0
    5.3301    0.5000    0.0000 O   0  0  0  0  0  0  0  0  0  0  0  0
    4.4641   -1.0000    0.0000 C   0  0  2  0  0  0  0  0  0  0  0  0
    5.3301   -1.5000    0.0000 O   0  0  0  0  0  0  0  0  0  0  0  0
    5.3301   -2.5000    0.0000 C   0  0  2  0  0  0  0  0  0  0  0  0
    4.4641   -3.0000    0.0000 C   0  0  1  0  0  0  0  0  0  0  0  0
    3.5981   -2.5000    0.0000 O   0  0  0  0  0  0  0  0  0  0  0  0
    4.4641   -4.0000    0.0000 C   0  0  2  0  0  0  0  0  0  0  0  0
    3.5981   -4.5000    0.0000 O   0  0  0  0  0  0  0  0  0  0  0  0
    5.3301   -4.5000    0.0000 C   0  0  1  0  0  0  0  0  0  0  0  0
    5.3301   -5.5000    0.0000 O   0  0  0  0  0  0  0  0  0  0  0  0
    6.1962   -4.0000    0.0000 C   0  0  2  0  0  0  0  0  0  0  0  0
    7.0622   -4.5000    0.0000 O   0  0  0  0  0  0  0  0  0  0  0  0
    7.9282   -4.0000    0.0000 C   0  0  2  0  0  0  0  0  0  0  0  0
    7.9282   -3.0000    0.0000 C   0  0  1  0  0  0  0  0  0  0  0  0
    7.0622   -2.5000    0.0000 O   0  0  0  0  0  0  0  0  0  0  0  0
    8.7942   -2.5000    0.0000 C   0  0  2  0  0  0  0  0  0  0  0  0
    8.7942   -1.5000    0.0000 O   0  0  0  0  0  0  0  0  0  0  0  0
    9.6603   -3.0000    0.0000 C   0  0  1  0  0  0  0  0  0  0  0  0
   10.5263   -2.5000    0.0000 C   0  0  0  0  0  0  0  0  0  0  0  0
   10.5263   -1.5000    0.0000 O   0  0  0  0  0  0  0  0  0  0  0  0
    9.6603   -4.0000    0.0000 O   0  0  0  0  0  0  0  0  0  0  0  0
    8.7942   -4.5000    0.0000 C   0  0  1  0  0  0  0  0  0  0  0  0
    8.7942   -5.5000    0.0000 O   0  0  0  0  0  0  0  0  0  0  0  0
    9.6603   -6.0000    0.0000 C   0  0  2  0  0  0  0  0  0  0  0  0
   10.5263   -5.5000    0.0000 C   0  0  1  0  0  0  0  0  0  0  0  0
   10.5263   -4.5000    0.0000 O   0  0  0  0  0  0  0  0  0  0  0  0
   11.3923   -6.0000    0.0000 C   0  0  2  0  0  0  0  0  0  0  0  0
   12.2583   -5.5000    0.0000 N   0  0  0  0  0  0  0  0  0  0  0  0
   13.1244   -6.0000    0.0000 C   0  0  0  0  0  0  0  0  0  0  0  0
   13.1244   -7.0000    0.0000 O   0  0  0  0  0  0  0  0  0  0  0  0
   13.9904   -5.5000    0.0000 C   0  0  0  0  0  0  0  0  0  0  0  0
   11.3923   -7.0000    0.0000 C   0  0  1  0  0  0  0  0  0  0  0  0
   12.2583   -7.5000    0.0000 O   0  0  0  0  0  0  0  0  0  0  0  0
   10.5263   -7.5000    0.0000 O   0  0  0  0  0  0  0  0  0  0  0  0
    9.6603   -7.0000    0.0000 C   0  0  1  0  0  0  0  0  0  0  0  0
    8.7942   -7.5000    0.0000 C   0  0  0  0  0  0  0  0  0  0  0  0
    8.7942   -8.5000    0.0000 O   0  0  0  0  0  0  0  0  0  0  0  0
    6.1962   -3.0000    0.0000 O   0  0  0  0  0  0  0  0  0  0  0  0
    3.5981   -1.5000    0.0000 O   0  0  0  0  0  0  0  0  0  0  0  0
    2.7321   -1.0000    0.0000 C   0  0  2  0  0  0  0  0  0  0  0  0
    1.8660   -1.5000    0.0000 C   0  0  0  0  0  0  0  0  0  0  0  0
    1.0000   -1.0000    0.0000 O   0  0  0  0  0  0  0  0  0  0  0  0
    1.0000    0.0000    0.0000 P   0  0  0  0  0  0  0  0  0  0  0  0
    2.0000    0.0000    0.0000 O   0  0  0  0  0  0  0  0  0  0  0  0
    1.0000    1.0000    0.0000 O   0  0  0  0  0  0  0  0  0  0  0  0
    0.0000    0.0000    0.0000 O   0  0  0  0  0  0  0  0  0  0  0  0
  1  2  1  6  0  0  0
  1 45  1  0  0  0  0
  1  3  1  0  0  0  0
  3  4  1  1  0  0  0
  3  5  1  0  0  0  0
  5  6  1  1  0  0  0
  5  7  1  0  0  0  0
  7  8  1  6  0  0  0
  7 44  1  0  0  0  0
  9  8  1  1  0  0  0
  9 10  1  0  0  0  0
  9 43  1  0  0  0  0
 10 11  1  6  0  0  0
 10 12  1  0  0  0  0
 12 13  1  1  0  0  0
 12 14  1  0  0  0  0
 14 15  1  6  0  0  0
 14 16  1  0  0  0  0
 16 17  1  1  0  0  0
 16 43  1  0  0  0  0
 18 17  1  6  0  0  0
 18 19  1  0  0  0  0
 18 27  1  0  0  0  0
 19 20  1  1  0  0  0
 19 21  1  0  0  0  0
 21 22  1  6  0  0  0
 21 23  1  0  0  0  0
 23 24  1  1  0  0  0
 23 26  1  0  0  0  0
 24 25  1  0  0  0  0
 26 27  1  0  0  0  0
 27 28  1  1  0  0  0
 29 28  1  6  0  0  0
 29 30  1  0  0  0  0
 29 40  1  0  0  0  0
 30 31  1  1  0  0  0
 30 32  1  0  0  0  0
 32 33  1  6  0  0  0
 32 37  1  0  0  0  0
 33 34  1  0  0  0  0
 34 35  2  0  0  0  0
 34 36  1  0  0  0  0
 37 38  1  1  0  0  0
 37 39  1  0  0  0  0
 39 40  1  0  0  0  0
 40 41  1  1  0  0  0
 41 42  1  0  0  0  0
 44 45  1  0  0  0  0
 45 46  1  6  0  0  0
 46 47  1  0  0  0  0
 47 48  1  0  0  0  0
 48 49  1  0  0  0  0
 48 50  1  0  0  0  0
 48 51  2  0  0  0  0
M  END
> <NMREDATA_VERSION>
1.1

> <NMREDATA_LEVEL>
0

> <NMREDATA_SOLVENT>
D2O

> <NMREDATA_FORMULA>
C25H44NO24P

> <NMREDATA_SMILES>
OC[C@H]1O[C@@H](O[C@H]2[C@H](CO)O[C@@H]([C@H]([C@@H]2O)NC(=O)C)O)[C@@H]([C@H]([C@@H]1O)O)O[C@@H]1O[C@H](O[C@@H]2O[C@H](COP(=O)(O)O)[C@@H]([C@H]([C@H]2O)O)O)[C@H]([C@@H]([C@H]1O)O)O

> <NMREDATA_ASSIGNMENT>
P48, 4.52, 48

> <NMREDATA_1D_31P>
Larmor=146
4.52, L=P48

$$$$
