
 OpenBabel06112616442D

 20 18  0  0  1  0  0  0  0  0999 V2000
    0.5000   -4.8301    0.0000 C    0  0  0  0  0  0  0  0  0  0  0  0
    1.0000   -5.6962    0.0000 C    0  0  0  0  0  0  0  0  0  0  0  0
    2.0000   -5.6962    0.0000 C    0  0  0  0  0  0  0  0  0  0  0  0
    2.5000   -4.8301    0.0000 C    0  0  0  0  0  0  0  0  0  0  0  0
    3.5000   -4.8301    0.0000 C    0  0  0  0  0  0  0  0  0  0  0  0
    4.0000   -3.9641    0.0000 C    0  0  0  0  0  0  0  0  0  0  0  0
    5.0000   -3.9641    0.0000 C    0  0  0  0  0  0  0  0  0  0  0  0
    5.5000   -3.0981    0.0000 C    0  0  0  0  0  0  0  0  0  0  0  0
    6.5000   -3.0981    0.0000 C    0  0  0  0  0  0  0  0  0  0  0  0
    7.0000   -2.2321    0.0000 C    0  0  3  0  0  0  0  0  0  0  0  0
    8.0000   -2.2321    0.0000 P    0  3  0  0  0  0  0  0  0  0  0  0
    8.0000   -3.2321    0.0000 C    0  0  0  0  0  0  0  0  0  0  0  0
    8.8660   -3.7321    0.0000 C    0  0  0  0  0  0  0  0  0  0  0  0
    9.0000   -2.2321    0.0000 C    0  0  0  0  0  0  0  0  0  0  0  0
    9.5000   -1.3660    0.0000 C    0  0  0  0  0  0  0  0  0  0  0  0
    8.0000   -1.2321    0.0000 C    0  0  0  0  0  0  0  0  0  0  0  0
    8.8660   -0.7321    0.0000 C    0  0  0  0  0  0  0  0  0  0  0  0
    6.5000   -1.3660    0.0000 O    0  0  0  0  0  0  0  0  0  0  0  0
    7.0000   -0.5000    0.0000 C    0  0  0  0  0  0  0  0  0  0  0  0
    0.5000   -6.6962    0.0000 Br   0  5  0  0  0  0  0  0  0  0  0  0
  1  2  1  0  0  0  0
  2  3  1  0  0  0  0
  3  4  1  0  0  0  0
  4  5  1  0  0  0  0
  5  6  1  0  0  0  0
  6  7  1  0  0  0  0
  7  8  1  0  0  0  0
  8  9  2  0  0  0  0
  9 10  1  0  0  0  0
 10 11  1  0  0  0  0
 10 18  1  0  0  0  0
 11 12  1  0  0  0  0
 11 14  1  0  0  0  0
 11 16  1  0  0  0  0
 12 13  1  0  0  0  0
 14 15  1  0  0  0  0
 16 17  1  0  0  0  0
 18 19  1  0  0  0  0
M  END
> <NMREDATA_VERSION>
1.1

> <NMREDATA_LEVEL>
0

> <NMREDATA_SOLVENT>
CDCl3

> <NMREDATA_FORMULA>
C17H36BrOP

> <NMREDATA_SMILES>
CCCCCCC/C=C/C(P(CC)(CC)CC)OC.Br

> <NMREDATA_ASSIGNMENT>
P11, 36.90, 11

> <NMREDATA_1D_31P>
Larmor=80
36.90, L=P11

$$$$
