
 OpenBabel06112616482D

 26 28  0  0  1  0  0  0  0  0999 V2000
   -7.9690    0.4262    0.0000 O    0  0  0  0  0  0  0  0  0  0  0  0
   -7.3812   -0.3828    0.0000 C    0  0  0  0  0  0  0  0  0  0  0  0
   -7.7880   -1.2963    0.0000 N    0  0  0  0  0  0  0  0  0  0  0  0
   -7.2002   -2.1053    0.0000 C    0  0  0  0  0  0  0  0  0  0  0  0
   -6.2057   -2.0008    0.0000 N    0  0  0  0  0  0  0  0  0  0  0  0
   -5.7989   -1.0873    0.0000 C    0  0  0  0  0  0  0  0  0  0  0  0
   -6.3867   -0.2782    0.0000 C    0  0  0  0  0  0  0  0  0  0  0  0
   -5.7989    0.5308    0.0000 N    0  0  0  0  0  0  0  0  0  0  0  0
   -4.8479    0.2218    0.0000 C    0  0  0  0  0  0  0  0  0  0  0  0
   -4.8479   -0.7782    0.0000 N    0  0  0  0  0  0  0  0  0  0  0  0
   -4.0388   -1.3660    0.0000 C    0  0  2  0  0  0  0  0  0  0  0  0
   -3.0878   -1.0570    0.0000 O    0  0  0  0  0  0  0  0  0  0  0  0
   -2.5000   -1.8660    0.0000 C    0  0  2  0  0  0  0  0  0  0  0  0
   -1.5000   -1.8660    0.0000 C    0  0  2  0  0  0  0  0  0  0  0  0
   -1.0000   -2.7321    0.0000 O    0  0  0  0  0  0  0  0  0  0  0  0
   -1.0000   -1.0000    0.0000 C    0  0  0  0  0  0  0  0  0  0  0  0
    0.0000   -1.0000    0.0000 P    0  0  0  0  0  0  0  0  0  0  0  0
    0.0000   -2.0000    0.0000 O    0  0  0  0  0  0  0  0  0  0  0  0
    1.0000   -1.0000    0.0000 O    0  0  0  0  0  0  0  0  0  0  0  0
    1.5000   -1.8660    0.0000 Na   0  0  0  0  0  0  0  0  0  0  0  0
    0.0000    0.0000    0.0000 O    0  0  0  0  0  0  0  0  0  0  0  0
    0.8660    0.5000    0.0000 Na   0  0  0  0  0  0  0  0  0  0  0  0
   -3.0878   -2.6750    0.0000 C    0  0  2  0  0  0  0  0  0  0  0  0
   -2.7788   -3.6261    0.0000 O    0  0  0  0  0  0  0  0  0  0  0  0
   -4.0388   -2.3660    0.0000 C    0  0  1  0  0  0  0  0  0  0  0  0
   -4.8479   -2.9538    0.0000 O    0  0  0  0  0  0  0  0  0  0  0  0
  1  2  2  0  0  0  0
  2  7  1  0  0  0  0
  2  3  1  0  0  0  0
  3  4  1  0  0  0  0
  4  5  2  0  0  0  0
  5  6  1  0  0  0  0
  6 10  1  0  0  0  0
  6  7  2  0  0  0  0
  7  8  1  0  0  0  0
  8  9  2  0  0  0  0
  9 10  1  0  0  0  0
 11 10  1  6  0  0  0
 11 12  1  0  0  0  0
 11 25  1  0  0  0  0
 12 13  1  0  0  0  0
 13 14  1  6  0  0  0
 13 23  1  0  0  0  0
 14 15  1  1  0  0  0
 14 16  1  0  0  0  0
 16 17  1  0  0  0  0
 17 18  2  0  0  0  0
 17 19  1  0  0  0  0
 17 21  1  0  0  0  0
 19 20  1  0  0  0  0
 21 22  1  0  0  0  0
 23 24  1  6  0  0  0
 23 25  1  0  0  0  0
 25 26  1  1  0  0  0
M  END
> <NMREDATA_VERSION>
1.1

> <NMREDATA_LEVEL>
0

> <NMREDATA_SOLVENT>
D2O

> <NMREDATA_FORMULA>
C11H13N4Na2O8P

> <NMREDATA_SMILES>
[Na]OP(=O)(C[C@H]([C@H]1O[C@H]([C@@H]([C@H]1O)O)n1cnc2c1nc[nH]c2=O)O)O[Na]

> <NMREDATA_ASSIGNMENT>
P17, 19.60, 17

> <NMREDATA_1D_31P>
Larmor=121
19.60, L=P17

$$$$
