
 OpenBabel06112616432D

 31 34  0  0  0  0  0  0  0  0999 V2000
    0.1340   -1.5000    0.0000 C    0  0  0  0  0  0  0  0  0  0  0  0
    1.0000   -1.0000    0.0000 C    0  0  0  0  0  0  0  0  0  0  0  0
    1.8660   -1.5000    0.0000 C    0  0  0  0  0  0  0  0  0  0  0  0
    1.0000    0.0000    0.0000 P    0  0  3  0  0  0  0  0  0  0  0  0
    2.0000    0.0000    0.0000 C    0  0  0  0  0  0  0  0  0  0  0  0
    2.5000    0.8660    0.0000 C    0  0  0  0  0  0  0  0  0  0  0  0
    3.5000    0.8660    0.0000 C    0  0  0  0  0  0  0  0  0  0  0  0
    4.0000    0.0000    0.0000 C    0  0  0  0  0  0  0  0  0  0  0  0
    3.5000   -0.8660    0.0000 C    0  0  0  0  0  0  0  0  0  0  0  0
    2.5000   -0.8660    0.0000 C    0  0  0  0  0  0  0  0  0  0  0  0
    1.0000    1.0000    0.0000 C    0  0  0  0  0  0  0  0  0  0  0  0
    0.1340    1.5000    0.0000 C    0  0  0  0  0  0  0  0  0  0  0  0
   -0.7321    1.0000    0.0000 C    0  0  0  0  0  0  0  0  0  0  0  0
   -0.6573    0.0028    0.0000 N    0  0  0  0  0  0  0  0  0  0  0  0
   -1.3904   -0.6774    0.0000 C    0  0  0  0  0  0  0  0  0  0  0  0
   -2.3792   -0.5283    0.0000 C    0  0  0  0  0  0  0  0  0  0  0  0
   -2.9425   -1.3546    0.0000 O    0  0  0  0  0  0  0  0  0  0  0  0
   -2.8792    0.3377    0.0000 N    0  0  0  0  0  0  0  0  0  0  0  0
   -3.8764    0.2630    0.0000 C    0  0  0  0  0  0  0  0  0  0  0  0
   -2.5139    1.2686    0.0000 C    0  0  0  0  0  0  0  0  0  0  0  0
   -1.5583    1.5633    0.0000 C    0  0  0  0  0  0  0  0  0  0  0  0
   -1.3358    2.5382    0.0000 C    0  0  0  0  0  0  0  0  0  0  0  0
   -2.0688    3.2184    0.0000 C    0  0  0  0  0  0  0  0  0  0  0  0
   -1.8463    4.1933    0.0000 Cl   0  0  0  0  0  0  0  0  0  0  0  0
   -3.0244    2.9237    0.0000 C    0  0  0  0  0  0  0  0  0  0  0  0
   -3.2469    1.9487    0.0000 C    0  0  0  0  0  0  0  0  0  0  0  0
    0.1340    2.5000    0.0000 C    0  0  0  0  0  0  0  0  0  0  0  0
    1.0000    3.0000    0.0000 C    0  0  0  0  0  0  0  0  0  0  0  0
    1.8660    2.5000    0.0000 C    0  0  0  0  0  0  0  0  0  0  0  0
    1.8660    1.5000    0.0000 C    0  0  0  0  0  0  0  0  0  0  0  0
    0.0000    0.0000    0.0000 O    0  0  0  0  0  0  0  0  0  0  0  0
  1  2  1  0  0  0  0
  2  3  1  0  0  0  0
  2  4  1  0  0  0  0
  4  5  1  0  0  0  0
  4 11  1  0  0  0  0
  4 31  2  0  0  0  0
  5 10  2  0  0  0  0
  5  6  1  0  0  0  0
  6  7  2  0  0  0  0
  7  8  1  0  0  0  0
  8  9  2  0  0  0  0
  9 10  1  0  0  0  0
 11 30  2  0  0  0  0
 11 12  1  0  0  0  0
 12 13  1  0  0  0  0
 12 27  2  0  0  0  0
 13 21  1  0  0  0  0
 13 14  2  0  0  0  0
 14 15  1  0  0  0  0
 15 16  1  0  0  0  0
 16 17  2  0  0  0  0
 16 18  1  0  0  0  0
 18 19  1  0  0  0  0
 18 20  1  0  0  0  0
 20 26  2  0  0  0  0
 20 21  1  0  0  0  0
 21 22  2  0  0  0  0
 22 23  1  0  0  0  0
 23 24  1  0  0  0  0
 23 25  2  0  0  0  0
 25 26  1  0  0  0  0
 27 28  1  0  0  0  0
 28 29  2  0  0  0  0
 29 30  1  0  0  0  0
M  END
> <NMREDATA_VERSION>
1.1

> <NMREDATA_LEVEL>
0

> <NMREDATA_SOLVENT>
CDCl3

> <NMREDATA_FORMULA>
C25H24ClN2O2P

> <NMREDATA_SMILES>
Clc1ccc2c(c1)C(=NCC(=O)N2C)c1ccccc1P(=O)(c1ccccc1)C(C)C

> <NMREDATA_ASSIGNMENT>
P4, 39.00, 4

> <NMREDATA_1D_31P>
Larmor=202
39.00, L=P4

$$$$
