
 OpenBabel06112616442D

 21 20  0  0  0  0  0  0  0  0999 V2000
    5.5000   -1.5000    0.0000 O   0  0  0  0  0  0  0  0  0  0  0  0
    6.5000   -1.5000    0.0000 S   0  0  0  0  0  0  0  0  0  0  0  0
    6.5000   -2.5000    0.0000 O   0  0  0  0  0  0  0  0  0  0  0  0
    7.5000   -1.5000    0.0000 C   0  0  0  0  0  0  0  0  0  0  0  0
    8.3660   -1.0000    0.0000 F   0  0  0  0  0  0  0  0  0  0  0  0
    7.5000   -0.5000    0.0000 F   0  0  0  0  0  0  0  0  0  0  0  0
    8.0000   -2.3660    0.0000 F   0  0  0  0  0  0  0  0  0  0  0  0
    6.5000   -0.5000    0.0000 O   0  5  0  0  0  0  0  0  0  0  0  0
    1.0000   -0.6340    0.0000 C   0  0  0  0  0  0  0  0  0  0  0  0
    0.5000   -1.5000    0.0000 O   0  0  0  0  0  0  0  0  0  0  0  0
    1.0000   -2.3660    0.0000 C   0  0  0  0  0  0  0  0  0  0  0  0
    2.0000   -2.3660    0.0000 C   0  0  0  0  0  0  0  0  0  0  0  0
    2.5000   -1.5000    0.0000 C   0  0  0  0  0  0  0  0  0  0  0  0
    3.5000   -1.5000    0.0000 P   0  3  0  0  0  0  0  0  0  0  0  0
    3.5000   -2.5000    0.0000 C   0  0  0  0  0  0  0  0  0  0  0  0
    4.5000   -1.5000    0.0000 C   0  0  0  0  0  0  0  0  0  0  0  0
    3.5000   -0.5000    0.0000 C   0  0  0  0  0  0  0  0  0  0  0  0
    2.5000   -3.2321    0.0000 C   0  0  0  0  0  0  0  0  0  0  0  0
    2.0000   -4.0981    0.0000 C   0  0  0  0  0  0  0  0  0  0  0  0
    1.0000   -4.0981    0.0000 C   0  0  0  0  0  0  0  0  0  0  0  0
    0.5000   -3.2321    0.0000 C   0  0  0  0  0  0  0  0  0  0  0  0
  1  2  2  0  0  0  0
  2  3  2  0  0  0  0
  2  4  1  0  0  0  0
  2  8  1  0  0  0  0
  4  5  1  0  0  0  0
  4  6  1  0  0  0  0
  4  7  1  0  0  0  0
  9 10  1  0  0  0  0
 10 11  1  0  0  0  0
 11 21  2  0  0  0  0
 11 12  1  0  0  0  0
 12 13  1  0  0  0  0
 12 18  2  0  0  0  0
 13 14  1  0  0  0  0
 14 15  1  0  0  0  0
 14 16  1  0  0  0  0
 14 17  1  0  0  0  0
 18 19  1  0  0  0  0
 19 20  2  0  0  0  0
 20 21  1  0  0  0  0
M  END
> <NMREDATA_VERSION>
1.1

> <NMREDATA_LEVEL>
0

> <NMREDATA_SOLVENT>
CDCl3

> <NMREDATA_FORMULA>
C12H18F3O4PS

> <NMREDATA_SMILES>
FC(S(=O)(=O)[O-])(F)F.COc1ccccc1C[P+](C)(C)C

> <NMREDATA_ASSIGNMENT>
P14, 27.30, 14

> <NMREDATA_1D_31P>
Larmor=202
27.30, L=P14

$$$$
