
 OpenBabel06112616422D

 39 44  0  0  0  0  0  0  0  0999 V2000
    0.0000   -4.6809    0.0000 C   0  0  0  0  0  0  0  0  0  0  0  0
    0.0000   -3.7447    0.0000 C   0  0  0  0  0  0  0  0  0  0  0  0
    0.8107   -3.2766    0.0000 C   0  0  0  0  0  0  0  0  0  0  0  0
    0.8107   -2.3404    0.0000 C   0  0  0  0  0  0  0  0  0  0  0  0
    0.0000   -1.8723    0.0000 C   0  0  0  0  0  0  0  0  0  0  0  0
    0.0000   -0.9362    0.0000 P   0  0  0  0  0  0  0  0  0  0  0  0
    0.9362   -0.9362    0.0000 O   0  0  0  0  0  0  0  0  0  0  0  0
   -3.7447   -0.9362    0.0000 C   0  0  0  0  0  0  0  0  0  0  0  0
   -4.1509   -1.7796    0.0000 C   0  0  0  0  0  0  0  0  0  0  0  0
   -3.5672   -2.5116    0.0000 C   0  0  0  0  0  0  0  0  0  0  0  0
   -3.9092   -3.3830    0.0000 C   0  0  0  0  0  0  0  0  0  0  0  0
   -3.3255   -4.1149    0.0000 C   0  0  0  0  0  0  0  0  0  0  0  0
   -2.3998   -3.9754    0.0000 C   0  0  0  0  0  0  0  0  0  0  0  0
   -2.0578   -3.1040    0.0000 C   0  0  0  0  0  0  0  0  0  0  0  0
   -2.6415   -2.3720    0.0000 C   0  0  0  0  0  0  0  0  0  0  0  0
   -5.0636   -1.9879    0.0000 C   0  0  0  0  0  0  0  0  0  0  0  0
   -5.7955   -1.4043    0.0000 C   0  0  0  0  0  0  0  0  0  0  0  0
   -6.5768   -1.9200    0.0000 C   0  0  0  0  0  0  0  0  0  0  0  0
   -7.4829   -1.6845    0.0000 C   0  0  0  0  0  0  0  0  0  0  0  0
   -8.1399   -2.3514    0.0000 C   0  0  0  0  0  0  0  0  0  0  0  0
   -7.8908   -3.2538    0.0000 C   0  0  0  0  0  0  0  0  0  0  0  0
   -6.9847   -3.4893    0.0000 C   0  0  0  0  0  0  0  0  0  0  0  0
   -6.3277   -2.8224    0.0000 C   0  0  0  0  0  0  0  0  0  0  0  0
   -5.3925   -2.8644    0.0000 N   0  0  0  0  0  0  0  0  0  0  0  0
   -4.8768   -3.6457    0.0000 C   0  0  0  0  0  0  0  0  0  0  0  0
   -5.7955   -0.4681    0.0000 C   0  0  0  0  0  0  0  0  0  0  0  0
   -6.6390   -0.0619    0.0000 O   0  0  0  0  0  0  0  0  0  0  0  0
   -5.0636    0.1156    0.0000 N   0  0  0  0  0  0  0  0  0  0  0  0
   -5.2719    1.0283    0.0000 C   0  0  0  0  0  0  0  0  0  0  0  0
   -4.1509   -0.0927    0.0000 C   0  0  0  0  0  0  0  0  0  0  0  0
    0.0000    0.0000    0.0000 C   0  0  0  0  0  0  0  0  0  0  0  0
   -0.8107    0.4681    0.0000 C   0  0  0  0  0  0  0  0  0  0  0  0
   -0.8107    1.4043    0.0000 C   0  0  0  0  0  0  0  0  0  0  0  0
    0.0000    1.8723    0.0000 C   0  0  0  0  0  0  0  0  0  0  0  0
    0.0000    2.8085    0.0000 C   0  0  0  0  0  0  0  0  0  0  0  0
    0.8107    1.4043    0.0000 C   0  0  0  0  0  0  0  0  0  0  0  0
    0.8107    0.4681    0.0000 C   0  0  0  0  0  0  0  0  0  0  0  0
   -0.8107   -2.3404    0.0000 C   0  0  0  0  0  0  0  0  0  0  0  0
   -0.8107   -3.2766    0.0000 C   0  0  0  0  0  0  0  0  0  0  0  0
  1  2  1  0  0  0  0
  2 39  2  0  0  0  0
  2  3  1  0  0  0  0
  3  4  2  0  0  0  0
  4  5  1  0  0  0  0
  5  6  1  0  0  0  0
  5 38  2  0  0  0  0
  6  7  2  0  0  0  0
  6  8  1  0  0  0  0
  6 31  1  0  0  0  0
  8 30  1  0  0  0  0
  8  9  2  0  0  0  0
  9 10  1  0  0  0  0
  9 16  1  0  0  0  0
 10 15  2  0  0  0  0
 10 11  1  0  0  0  0
 11 12  2  0  0  0  0
 12 13  1  0  0  0  0
 13 14  2  0  0  0  0
 14 15  1  0  0  0  0
 16 24  1  0  0  0  0
 16 17  2  0  0  0  0
 17 18  1  0  0  0  0
 17 26  1  0  0  0  0
 18 23  2  0  0  0  0
 18 19  1  0  0  0  0
 19 20  2  0  0  0  0
 20 21  1  0  0  0  0
 21 22  2  0  0  0  0
 22 23  1  0  0  0  0
 23 24  1  0  0  0  0
 24 25  1  0  0  0  0
 26 27  2  0  0  0  0
 26 28  1  0  0  0  0
 28 29  1  0  0  0  0
 28 30  1  0  0  0  0
 31 37  2  0  0  0  0
 31 32  1  0  0  0  0
 32 33  2  0  0  0  0
 33 34  1  0  0  0  0
 34 35  1  0  0  0  0
 34 36  2  0  0  0  0
 36 37  1  0  0  0  0
 38 39  1  0  0  0  0
M  END
> <NMREDATA_VERSION>
1.1

> <NMREDATA_LEVEL>
0

> <NMREDATA_SOLVENT>
CDCl3

> <NMREDATA_FORMULA>
C34H31N2O2P

> <NMREDATA_SMILES>
Cc1ccc(cc1)P(=O)(C1=C(c2ccccc2)c2c(C(=O)N(C1)C)c1c(n2C)cccc1)c1ccc(cc1)C

> <NMREDATA_ASSIGNMENT>
P6, 30.00, 6

> <NMREDATA_1D_31P>
Larmor=162
30.00, L=P6

$$$$
