
 OpenBabel06112616432D

 14 15  0  0  0  0  0  0  0  0999 V2000
    1.4945   -0.9706    0.0000 C    0  0  0  0  0  0  0  0  0  0  0  0
    0.5000   -0.8660    0.0000 C    0  0  0  0  0  0  0  0  0  0  0  0
   -0.1691   -1.6092    0.0000 C    0  0  0  0  0  0  0  0  0  0  0  0
   -1.0827   -1.2024    0.0000 P    0  0  0  0  0  0  0  0  0  0  0  0
   -1.9487   -1.7024    0.0000 C    0  0  0  0  0  0  0  0  0  0  0  0
   -1.9487   -2.7024    0.0000 C    0  0  0  0  0  0  0  0  0  0  0  0
   -2.8147   -3.2024    0.0000 C    0  0  0  0  0  0  0  0  0  0  0  0
   -3.6808   -2.7024    0.0000 C    0  0  0  0  0  0  0  0  0  0  0  0
   -4.5468   -3.2024    0.0000 Br   0  0  0  0  0  0  0  0  0  0  0  0
   -3.6808   -1.7024    0.0000 C    0  0  0  0  0  0  0  0  0  0  0  0
   -2.8147   -1.2024    0.0000 C    0  0  0  0  0  0  0  0  0  0  0  0
   -0.9781   -0.2079    0.0000 C    0  0  0  0  0  0  0  0  0  0  0  0
    0.0000    0.0000    0.0000 C    0  0  0  0  0  0  0  0  0  0  0  0
    0.4067    0.9135    0.0000 C    0  0  0  0  0  0  0  0  0  0  0  0
  1  2  1  0  0  0  0
  2 13  1  0  0  0  0
  2  3  2  0  0  0  0
  3  4  1  0  0  0  0
  4  5  1  0  0  0  0
  4 12  1  0  0  0  0
  5 11  2  0  0  0  0
  5  6  1  0  0  0  0
  6  7  2  0  0  0  0
  7  8  1  0  0  0  0
  8  9  1  0  0  0  0
  8 10  2  0  0  0  0
 10 11  1  0  0  0  0
 12 13  2  0  0  0  0
 13 14  1  0  0  0  0
M  END
> <NMREDATA_VERSION>
1.1

> <NMREDATA_LEVEL>
0

> <NMREDATA_SOLVENT>
CDCl3

> <NMREDATA_FORMULA>
C12H12BrP

> <NMREDATA_SMILES>
Brc1ccc(cc1)p1cc(c(c1)C)C

> <NMREDATA_ASSIGNMENT>
P4, -4.39, 4

> <NMREDATA_1D_31P>
Larmor=202
-4.39, L=P4

$$$$
