
 OpenBabel06112616432D

 34 38  0  0  0  0  0  0  0  0999 V2000
   -2.9960   -2.0973    0.0000 C   0  0  0  0  0  0  0  0  0  0  0  0
   -2.7735   -1.1223    0.0000 C   0  0  0  0  0  0  0  0  0  0  0  0
   -1.8179   -0.8276    0.0000 C   0  0  0  0  0  0  0  0  0  0  0  0
   -1.0849   -1.5078    0.0000 C   0  0  0  0  0  0  0  0  0  0  0  0
   -0.1293   -1.2130    0.0000 C   0  0  0  0  0  0  0  0  0  0  0  0
    0.6037   -1.8932    0.0000 O   0  0  0  0  0  0  0  0  0  0  0  0
    1.5593   -1.5984    0.0000 C   0  0  0  0  0  0  0  0  0  0  0  0
    1.7818   -0.6235    0.0000 C   0  0  0  0  0  0  0  0  0  0  0  0
    1.0000    0.0000    0.0000 C   0  0  0  0  0  0  0  0  0  0  0  0
    0.0000    0.0000    0.0000 C   0  0  0  0  0  0  0  0  0  0  0  0
    0.0000    1.0000    0.0000 C   0  0  0  0  0  0  0  0  0  0  0  0
    1.0000    1.0000    0.0000 C   0  0  0  0  0  0  0  0  0  0  0  0
    1.7818    1.6235    0.0000 C   0  0  0  0  0  0  0  0  0  0  0  0
    1.5593    2.5984    0.0000 C   0  0  0  0  0  0  0  0  0  0  0  0
    0.6037    2.8932    0.0000 O   0  0  0  0  0  0  0  0  0  0  0  0
    0.3812    3.8681    0.0000 C   0  0  0  0  0  0  0  0  0  0  0  0
   -0.5744    4.1629    0.0000 C   0  0  0  0  0  0  0  0  0  0  0  0
   -1.3074    3.4827    0.0000 C   0  0  0  0  0  0  0  0  0  0  0  0
   -2.2630    3.7774    0.0000 C   0  0  0  0  0  0  0  0  0  0  0  0
   -2.4855    4.7524    0.0000 C   0  0  0  0  0  0  0  0  0  0  0  0
   -1.7524    5.4325    0.0000 C   0  0  0  0  0  0  0  0  0  0  0  0
   -0.7969    5.1378    0.0000 C   0  0  0  0  0  0  0  0  0  0  0  0
    2.7568    1.4010    0.0000 O   0  0  0  0  0  0  0  0  0  0  0  0
    3.1906    0.5000    0.0000 P   0  0  3  0  0  0  0  0  0  0  0  0
    4.0567    0.0000    0.0000 O   0  0  0  0  0  0  0  0  0  0  0  0
    4.0567    1.0000    0.0000 C   0  0  0  0  0  0  0  0  0  0  0  0
    4.0567    2.0000    0.0000 C   0  0  0  0  0  0  0  0  0  0  0  0
    4.9227    2.5000    0.0000 C   0  0  0  0  0  0  0  0  0  0  0  0
    5.7887    2.0000    0.0000 C   0  0  0  0  0  0  0  0  0  0  0  0
    5.7887    1.0000    0.0000 C   0  0  0  0  0  0  0  0  0  0  0  0
    4.9227    0.5000    0.0000 C   0  0  0  0  0  0  0  0  0  0  0  0
    2.7568   -0.4010    0.0000 O   0  0  0  0  0  0  0  0  0  0  0  0
   -1.3074   -2.4827    0.0000 C   0  0  0  0  0  0  0  0  0  0  0  0
   -2.2630   -2.7774    0.0000 C   0  0  0  0  0  0  0  0  0  0  0  0
  1 34  2  0  0  0  0
  1  2  1  0  0  0  0
  2  3  2  0  0  0  0
  3  4  1  0  0  0  0
  4  5  1  0  0  0  0
  4 33  2  0  0  0  0
  5  6  1  0  0  0  0
  6  7  1  0  0  0  0
  7  8  1  0  0  0  0
  8 32  1  0  0  0  0
  8  9  2  0  0  0  0
  9 12  1  0  0  0  0
  9 10  1  0  0  0  0
 10 11  1  0  0  0  0
 11 12  1  0  0  0  0
 12 13  2  0  0  0  0
 13 14  1  0  0  0  0
 13 23  1  0  0  0  0
 14 15  1  0  0  0  0
 15 16  1  0  0  0  0
 16 17  1  0  0  0  0
 17 22  2  0  0  0  0
 17 18  1  0  0  0  0
 18 19  2  0  0  0  0
 19 20  1  0  0  0  0
 20 21  2  0  0  0  0
 21 22  1  0  0  0  0
 23 24  1  0  0  0  0
 24 25  2  0  0  0  0
 24 26  1  0  0  0  0
 24 32  1  0  0  0  0
 26 31  2  0  0  0  0
 26 27  1  0  0  0  0
 27 28  2  0  0  0  0
 28 29  1  0  0  0  0
 29 30  2  0  0  0  0
 30 31  1  0  0  0  0
 33 34  1  0  0  0  0
M  END
> <NMREDATA_VERSION>
1.1

> <NMREDATA_LEVEL>
0

> <NMREDATA_SOLVENT>
CDCl3

> <NMREDATA_FORMULA>
C28H27O5P

> <NMREDATA_SMILES>
O=P1(OC(=C2C(=C(O1)COCc1ccccc1)CC2)COCc1ccccc1)c1ccccc1

> <NMREDATA_ASSIGNMENT>
P24, 8.25, 24

> <NMREDATA_1D_31P>
Larmor=202
8.25, L=P24

$$$$
