
 OpenBabel06112616462D

 29 32  0  0  0  0  0  0  0  0999 V2000
    2.2732   -4.1067    0.0000 C   0  0  0  0  0  0  0  0  0  0  0  0
    3.1954   -3.8071    0.0000 C   0  0  0  0  0  0  0  0  0  0  0  0
    3.3971   -2.8586    0.0000 O   0  0  0  0  0  0  0  0  0  0  0  0
    2.6764   -2.2097    0.0000 C   0  0  0  0  0  0  0  0  0  0  0  0
    2.8780   -1.2612    0.0000 O   0  0  0  0  0  0  0  0  0  0  0  0
    1.7542   -2.5094    0.0000 C   0  0  0  0  0  0  0  0  0  0  0  0
    1.4545   -3.4316    0.0000 N   0  0  0  0  0  0  0  0  0  0  0  0
    0.4848   -3.4316    0.0000 C   0  0  0  0  0  0  0  0  0  0  0  0
   -0.1640   -4.1522    0.0000 C   0  0  0  0  0  0  0  0  0  0  0  0
   -1.1125   -3.9506    0.0000 C   0  0  0  0  0  0  0  0  0  0  0  0
   -1.4122   -3.0284    0.0000 C   0  0  0  0  0  0  0  0  0  0  0  0
   -2.3607   -2.8268    0.0000 O   0  0  0  0  0  0  0  0  0  0  0  0
   -0.7633   -2.3078    0.0000 C   0  0  0  0  0  0  0  0  0  0  0  0
    0.1852   -2.5094    0.0000 C   0  0  0  0  0  0  0  0  0  0  0  0
    0.9697   -1.9394    0.0000 C   0  0  0  0  0  0  0  0  0  0  0  0
    0.9697    0.0000    0.0000 P   0  0  0  0  0  0  0  0  0  0  0  0
    1.9394    0.0000    0.0000 C   0  0  0  0  0  0  0  0  0  0  0  0
    2.4242    0.8398    0.0000 C   0  0  0  0  0  0  0  0  0  0  0  0
    3.3939    0.8398    0.0000 C   0  0  0  0  0  0  0  0  0  0  0  0
    3.8788    0.0000    0.0000 C   0  0  0  0  0  0  0  0  0  0  0  0
    3.3939   -0.8398    0.0000 C   0  0  0  0  0  0  0  0  0  0  0  0
    2.4242   -0.8398    0.0000 C   0  0  0  0  0  0  0  0  0  0  0  0
    0.9697    0.9697    0.0000 O   0  0  0  0  0  0  0  0  0  0  0  0
    0.0000    0.0000    0.0000 C   0  0  0  0  0  0  0  0  0  0  0  0
   -0.4848   -0.8398    0.0000 C   0  0  0  0  0  0  0  0  0  0  0  0
   -1.4545   -0.8398    0.0000 C   0  0  0  0  0  0  0  0  0  0  0  0
   -1.9394    0.0000    0.0000 C   0  0  0  0  0  0  0  0  0  0  0  0
   -1.4545    0.8398    0.0000 C   0  0  0  0  0  0  0  0  0  0  0  0
   -0.4848    0.8398    0.0000 C   0  0  0  0  0  0  0  0  0  0  0  0
  1  2  1  0  0  0  0
  2  3  1  0  0  0  0
  3  4  1  0  0  0  0
  4  5  2  0  0  0  0
  4  6  1  0  0  0  0
  6 15  2  0  0  0  0
  6  7  1  0  0  0  0
  7  8  1  0  0  0  0
  8 14  2  0  0  0  0
  8  9  1  0  0  0  0
  9 10  2  0  0  0  0
 10 11  1  0  0  0  0
 11 12  1  0  0  0  0
 11 13  2  0  0  0  0
 13 14  1  0  0  0  0
 14 15  1  0  0  0  0
 15 16  1  0  0  0  0
 16 17  1  0  0  0  0
 16 23  2  0  0  0  0
 16 24  1  0  0  0  0
 17 22  2  0  0  0  0
 17 18  1  0  0  0  0
 18 19  2  0  0  0  0
 19 20  1  0  0  0  0
 20 21  2  0  0  0  0
 21 22  1  0  0  0  0
 24 29  2  0  0  0  0
 24 25  1  0  0  0  0
 25 26  2  0  0  0  0
 26 27  1  0  0  0  0
 27 28  2  0  0  0  0
 28 29  1  0  0  0  0
M  END
> <NMREDATA_VERSION>
1.1

> <NMREDATA_LEVEL>
0

> <NMREDATA_SOLVENT>
DMSO-d6

> <NMREDATA_FORMULA>
C23H20NO4P

> <NMREDATA_SMILES>
CCOC(=O)c1[nH]c2c(c1P(=O)(c1ccccc1)c1ccccc1)cc(cc2)O

> <NMREDATA_ASSIGNMENT>
P16, 22.06, 16

> <NMREDATA_1D_31P>
Larmor=162
22.06, L=P16

$$$$
