
 OpenBabel06112616462D

 49 51  0  0  0  0  0  0  0  0999 V2000
    0.1314   -3.4327    0.0000 C   0  5  0  0  0  0  0  0  0  0  0  0
    0.9808   -2.9423    0.0000 N   0  3  0  0  0  0  0  0  0  0  0  0
    1.8301   -2.4519    0.0000 C   0  0  0  0  0  0  0  0  0  0  0  0
    1.8301   -1.4712    0.0000 C   0  0  0  0  0  0  0  0  0  0  0  0
    0.9808   -0.9808    0.0000 O   0  0  0  0  0  0  0  0  0  0  0  0
    0.9808    0.0000    0.0000 P   0  0  3  0  0  0  0  0  0  0  0  0
    1.9615    0.0000    0.0000 O   0  0  0  0  0  0  0  0  0  0  0  0
    2.4519    0.8494    0.0000 C   0  0  0  0  0  0  0  0  0  0  0  0
    3.4327    0.8494    0.0000 C   0  0  0  0  0  0  0  0  0  0  0  0
    0.9808    0.9808    0.0000 C   0  0  0  0  0  0  0  0  0  0  0  0
    0.1314    1.4712    0.0000 C   0  0  0  0  0  0  0  0  0  0  0  0
    0.1314    2.4519    0.0000 C   0  0  0  0  0  0  0  0  0  0  0  0
    0.9808    2.9423    0.0000 F   0  0  0  0  0  0  0  0  0  0  0  0
   -0.7180    2.9423    0.0000 C   0  0  0  0  0  0  0  0  0  0  0  0
   -0.7180    3.9231    0.0000 C   0  0  0  0  0  0  0  0  0  0  0  0
    0.1314    4.4135    0.0000 C   0  0  0  0  0  0  0  0  0  0  0  0
    0.1314    5.3942    0.0000 C   0  0  0  0  0  0  0  0  0  0  0  0
   -0.7180    5.8846    0.0000 O   0  0  0  0  0  0  0  0  0  0  0  0
    0.9808    5.8846    0.0000 O   0  0  0  0  0  0  0  0  0  0  0  0
    0.9808    6.8654    0.0000 C   0  0  0  0  0  0  0  0  0  0  0  0
    1.8301    7.3558    0.0000 C   0  0  0  0  0  0  0  0  0  0  0  0
   -1.5673    2.4519    0.0000 C   0  0  0  0  0  0  0  0  0  0  0  0
   -3.2661    3.4327    0.0000 C   0  0  0  0  0  0  0  0  0  0  0  0
   -4.1155    2.9423    0.0000 C   0  0  0  0  0  0  0  0  0  0  0  0
   -4.9648    3.4327    0.0000 C   0  0  0  0  0  0  0  0  0  0  0  0
   -4.9648    4.4135    0.0000 C   0  0  0  0  0  0  0  0  0  0  0  0
   -4.1155    4.9038    0.0000 C   0  0  0  0  0  0  0  0  0  0  0  0
   -3.2661    4.4135    0.0000 C   0  0  0  0  0  0  0  0  0  0  0  0
   -2.4167    4.9038    0.0000 C   0  0  0  0  0  0  0  0  0  0  0  0
   -1.5673    4.4135    0.0000 O   0  0  0  0  0  0  0  0  0  0  0  0
   -2.4167    5.8846    0.0000 O   0  0  0  0  0  0  0  0  0  0  0  0
   -3.2661    6.3750    0.0000 C   0  0  0  0  0  0  0  0  0  0  0  0
   -1.5673    1.4712    0.0000 C   0  0  0  0  0  0  0  0  0  0  0  0
   -2.4167    0.9808    0.0000 C   0  0  0  0  0  0  0  0  0  0  0  0
   -3.2661    1.4712    0.0000 C   0  0  0  0  0  0  0  0  0  0  0  0
   -4.1155    0.9808    0.0000 C   0  0  0  0  0  0  0  0  0  0  0  0
   -4.1155    0.0000    0.0000 O   0  0  0  0  0  0  0  0  0  0  0  0
   -4.9648    1.4712    0.0000 O   0  0  0  0  0  0  0  0  0  0  0  0
   -5.8142    0.9808    0.0000 C   0  0  0  0  0  0  0  0  0  0  0  0
   -6.6636    1.4712    0.0000 C   0  0  0  0  0  0  0  0  0  0  0  0
   -0.7180    0.9808    0.0000 C   0  0  0  0  0  0  0  0  0  0  0  0
   -0.7180    0.0000    0.0000 F   0  0  0  0  0  0  0  0  0  0  0  0
    0.0000    0.0000    0.0000 O   0  0  0  0  0  0  0  0  0  0  0  0
    2.6795   -0.9808    0.0000 C   0  0  0  0  0  0  0  0  0  0  0  0
    3.5289   -1.4712    0.0000 C   0  0  0  0  0  0  0  0  0  0  0  0
    4.3783   -0.9808    0.0000 O   0  0  0  0  0  0  0  0  0  0  0  0
    5.2276   -1.4712    0.0000 C   0  0  0  0  0  0  0  0  0  0  0  0
    3.5289   -2.4519    0.0000 C   0  0  0  0  0  0  0  0  0  0  0  0
    2.6795   -2.9423    0.0000 C   0  0  0  0  0  0  0  0  0  0  0  0
  1  2  3  0  0  0  0
  2  3  1  0  0  0  0
  3 49  2  0  0  0  0
  3  4  1  0  0  0  0
  4  5  1  0  0  0  0
  4 44  2  0  0  0  0
  5  6  1  0  0  0  0
  6  7  1  0  0  0  0
  6 10  1  0  0  0  0
  6 43  2  0  0  0  0
  7  8  1  0  0  0  0
  8  9  1  0  0  0  0
 10 11  1  0  0  0  0
 11 41  2  0  0  0  0
 11 12  1  0  0  0  0
 12 13  1  0  0  0  0
 12 14  2  0  0  0  0
 14 15  1  0  0  0  0
 14 22  1  0  0  0  0
 15 16  2  3  0  0  0
 16 17  1  0  0  0  0
 17 18  2  0  0  0  0
 17 19  1  0  0  0  0
 19 20  1  0  0  0  0
 20 21  1  0  0  0  0
 22 23  1  0  0  0  0
 22 33  2  0  0  0  0
 23 28  2  0  0  0  0
 23 24  1  0  0  0  0
 24 25  2  0  0  0  0
 25 26  1  0  0  0  0
 26 27  2  0  0  0  0
 27 28  1  0  0  0  0
 28 29  1  0  0  0  0
 29 30  2  0  0  0  0
 29 31  1  0  0  0  0
 31 32  1  0  0  0  0
 33 34  1  0  0  0  0
 33 41  1  0  0  0  0
 34 35  2  3  0  0  0
 35 36  1  0  0  0  0
 36 37  2  0  0  0  0
 36 38  1  0  0  0  0
 38 39  1  0  0  0  0
 39 40  1  0  0  0  0
 41 42  1  0  0  0  0
 44 45  1  0  0  0  0
 45 46  1  0  0  0  0
 45 48  2  0  0  0  0
 46 47  1  0  0  0  0
 48 49  1  0  0  0  0
M  END
> <NMREDATA_VERSION>
1.1

> <NMREDATA_LEVEL>
0

> <NMREDATA_SOLVENT>
CDCl3

> <NMREDATA_FORMULA>
C35H34F2NO10P

> <NMREDATA_SMILES>
CCOC(=O)C=Cc1c(F)c(CP(=O)(Oc2cc(OC)ccc2[N+]#[C-])OCC)c(c(c1c1ccccc1C(=O)OC)C=CC(=O)OCC)F

> <NMREDATA_ASSIGNMENT>
P6, 20.90, 6

> <NMREDATA_1D_31P>
Larmor=202
20.90, L=P6

$$$$
