
 OpenBabel06112616422D

 60 65  0  0  1  0  0  0  0  0999 V2000
   -1.5981    4.5000    0.0000 C   0  0  0  0  0  0  0  0  0  0  0  0
   -1.5981    5.5000    0.0000 C   0  0  0  0  0  0  0  0  0  0  0  0
   -2.4641    6.0000    0.0000 C   0  0  0  0  0  0  0  0  0  0  0  0
   -3.3301    5.5000    0.0000 C   0  0  0  0  0  0  0  0  0  0  0  0
   -2.4641    7.0000    0.0000 C   0  0  0  0  0  0  0  0  0  0  0  0
   -1.5981    7.5000    0.0000 C   0  0  0  0  0  0  0  0  0  0  0  0
   -0.7321    7.0000    0.0000 C   0  0  0  0  0  0  0  0  0  0  0  0
    0.1340    7.5000    0.0000 C   0  0  0  0  0  0  0  0  0  0  0  0
   -0.7321    6.0000    0.0000 C   0  0  0  0  0  0  0  0  0  0  0  0
    0.1340    5.5000    0.0000 O   0  0  0  0  0  0  0  0  0  0  0  0
    0.1340    4.5000    0.0000 C   0  0  0  0  0  0  0  0  0  0  0  0
   -0.7321    4.0000    0.0000 O   0  0  0  0  0  0  0  0  0  0  0  0
    1.0000    4.0000    0.0000 C   0  0  0  0  0  0  0  0  0  0  0  0
    1.0000    3.0000    0.0000 C   0  0  0  0  0  0  0  0  0  0  0  0
    1.8660    2.5000    0.0000 C   0  0  0  0  0  0  0  0  0  0  0  0
    1.8660    1.5000    0.0000 C   0  0  0  0  0  0  0  0  0  0  0  0
    1.0000    1.0000    0.0000 C   0  0  0  0  0  0  0  0  0  0  0  0
    1.0000    0.0000    0.0000 P   0  0  0  0  0  0  0  0  0  0  0  0
    2.0000    0.0000    0.0000 O   0  0  0  0  0  0  0  0  0  0  0  0
    1.0000   -1.0000    0.0000 C   0  0  0  0  0  0  0  0  0  0  0  0
    0.1340   -1.5000    0.0000 C   0  0  0  0  0  0  0  0  0  0  0  0
    0.1340   -2.5000    0.0000 C   0  0  0  0  0  0  0  0  0  0  0  0
    1.0000   -3.0000    0.0000 C   0  0  0  0  0  0  0  0  0  0  0  0
    1.8660   -2.5000    0.0000 C   0  0  0  0  0  0  0  0  0  0  0  0
    1.8660   -1.5000    0.0000 C   0  0  0  0  0  0  0  0  0  0  0  0
    0.0000    0.0000    0.0000 C   0  0  0  0  0  0  0  0  0  0  0  0
   -0.5000    0.8660    0.0000 C   0  0  0  0  0  0  0  0  0  0  0  0
   -1.5000    0.8660    0.0000 C   0  0  0  0  0  0  0  0  0  0  0  0
   -2.0000    0.0000    0.0000 C   0  0  0  0  0  0  0  0  0  0  0  0
   -1.5000   -0.8660    0.0000 C   0  0  0  0  0  0  0  0  0  0  0  0
   -0.5000   -0.8660    0.0000 C   0  0  0  0  0  0  0  0  0  0  0  0
    2.7321    1.0000    0.0000 C   0  0  0  0  0  0  0  0  0  0  0  0
    3.5981    1.5000    0.0000 C   0  0  0  0  0  0  0  0  0  0  0  0
    3.5981    2.5000    0.0000 C   0  0  0  0  0  0  0  0  0  0  0  0
    4.4641    3.0000    0.0000 C   0  0  0  0  0  0  0  0  0  0  0  0
    4.4641    4.0000    0.0000 C   0  0  0  0  0  0  0  0  0  0  0  0
    3.5981    4.5000    0.0000 C   0  0  0  0  0  0  0  0  0  0  0  0
    2.7321    4.0000    0.0000 C   0  0  0  0  0  0  0  0  0  0  0  0
    2.7321    3.0000    0.0000 C   0  0  0  0  0  0  0  0  0  0  0  0
   -1.5981    8.5000    0.0000 C   0  0  0  0  0  0  0  0  0  0  0  0
   -2.4641    9.0000    0.0000 C   0  0  0  0  0  0  0  0  0  0  0  0
   -3.3301    8.5000    0.0000 C   0  0  1  0  0  0  0  0  0  0  0  0
   -3.8301    9.3660    0.0000 C   0  0  0  0  0  0  0  0  0  0  0  0
   -4.3301    8.5000    0.0000 C   0  0  0  0  0  0  0  0  0  0  0  0
   -4.8301    7.6340    0.0000 C   0  0  0  0  0  0  0  0  0  0  0  0
   -5.8301    7.6340    0.0000 C   0  0  0  0  0  0  0  0  0  0  0  0
   -6.3301    6.7679    0.0000 C   0  0  2  0  0  0  0  0  0  0  0  0
   -7.3301    6.7679    0.0000 C   0  0  0  0  0  0  0  0  0  0  0  0
   -5.8301    5.9019    0.0000 C   0  0  0  0  0  0  0  0  0  0  0  0
   -6.3301    5.0359    0.0000 C   0  0  0  0  0  0  0  0  0  0  0  0
   -7.3301    5.0359    0.0000 C   0  0  0  0  0  0  0  0  0  0  0  0
   -7.8301    4.1699    0.0000 C   0  0  2  0  0  0  0  0  0  0  0  0
   -8.8301    4.1699    0.0000 C   0  0  0  0  0  0  0  0  0  0  0  0
   -7.3301    3.3038    0.0000 C   0  0  0  0  0  0  0  0  0  0  0  0
   -7.8301    2.4378    0.0000 C   0  0  0  0  0  0  0  0  0  0  0  0
   -8.8301    2.4378    0.0000 C   0  0  0  0  0  0  0  0  0  0  0  0
   -9.3301    1.5718    0.0000 C   0  0  0  0  0  0  0  0  0  0  0  0
  -10.3301    1.5718    0.0000 C   0  0  0  0  0  0  0  0  0  0  0  0
   -8.8301    0.7058    0.0000 C   0  0  0  0  0  0  0  0  0  0  0  0
   -3.3301    7.5000    0.0000 O   0  0  0  0  0  0  0  0  0  0  0  0
  1  2  1  0  0  0  0
  2  9  2  0  0  0  0
  2  3  1  0  0  0  0
  3  4  1  0  0  0  0
  3  5  2  0  0  0  0
  5 60  1  0  0  0  0
  5  6  1  0  0  0  0
  6  7  2  0  0  0  0
  6 40  1  0  0  0  0
  7  8  1  0  0  0  0
  7  9  1  0  0  0  0
  9 10  1  0  0  0  0
 10 11  1  0  0  0  0
 11 12  2  0  0  0  0
 11 13  1  0  0  0  0
 13 14  2  0  0  0  0
 14 15  1  0  0  0  0
 15 39  2  0  0  0  0
 15 16  1  0  0  0  0
 16 17  1  0  0  0  0
 16 32  2  0  0  0  0
 17 18  1  0  0  0  0
 18 19  2  0  0  0  0
 18 20  1  0  0  0  0
 18 26  1  0  0  0  0
 20 25  2  0  0  0  0
 20 21  1  0  0  0  0
 21 22  2  0  0  0  0
 22 23  1  0  0  0  0
 23 24  2  0  0  0  0
 24 25  1  0  0  0  0
 26 31  2  0  0  0  0
 26 27  1  0  0  0  0
 27 28  2  0  0  0  0
 28 29  1  0  0  0  0
 29 30  2  0  0  0  0
 30 31  1  0  0  0  0
 32 33  1  0  0  0  0
 33 34  2  0  0  0  0
 34 39  1  0  0  0  0
 34 35  1  0  0  0  0
 35 36  2  0  0  0  0
 36 37  1  0  0  0  0
 37 38  2  0  0  0  0
 38 39  1  0  0  0  0
 40 41  1  0  0  0  0
 41 42  1  0  0  0  0
 42 43  1  1  0  0  0
 42 44  1  0  0  0  0
 42 60  1  0  0  0  0
 44 45  1  0  0  0  0
 45 46  1  0  0  0  0
 46 47  1  0  0  0  0
 47 48  1  1  0  0  0
 47 49  1  0  0  0  0
 49 50  1  0  0  0  0
 50 51  1  0  0  0  0
 51 52  1  0  0  0  0
 52 53  1  1  0  0  0
 52 54  1  0  0  0  0
 54 55  1  0  0  0  0
 55 56  1  0  0  0  0
 56 57  1  0  0  0  0
 57 58  1  0  0  0  0
 57 59  1  0  0  0  0
M  END
> <NMREDATA_VERSION>
1.1

> <NMREDATA_LEVEL>
0

> <NMREDATA_SOLVENT>
CDCl3

> <NMREDATA_FORMULA>
C55H69O4P

> <NMREDATA_SMILES>
C[C@@H](CCC[C@]1(C)CCc2c(O1)c(C)c(c(c2C)OC(=O)/C=C/c1c(ccc2c1cccc2)CP(=O)(c1ccccc1)c1ccccc1)C)CCC[C@@H](CCCC(C)C)C

> <NMREDATA_ASSIGNMENT>
P18, 29.13, 18

> <NMREDATA_1D_31P>
Larmor=162
29.13, L=P18

$$$$
