
 OpenBabel06112616452D

 35 38  0  0  0  0  0  0  0  0999 V2000
    8.0468   -1.5000    0.0000 O   0  0  0  0  0  0  0  0  0  0  0  0
    9.0468   -1.5000    0.0000 S   0  0  0  0  0  0  0  0  0  0  0  0
    9.0468   -2.5000    0.0000 O   0  0  0  0  0  0  0  0  0  0  0  0
   10.0468   -1.5000    0.0000 C   0  0  0  0  0  0  0  0  0  0  0  0
   10.9128   -1.0000    0.0000 F   0  0  0  0  0  0  0  0  0  0  0  0
   10.0468   -0.5000    0.0000 F   0  0  0  0  0  0  0  0  0  0  0  0
   10.5468   -2.3660    0.0000 F   0  0  0  0  0  0  0  0  0  0  0  0
    9.0468   -0.5000    0.0000 O   0  5  0  0  0  0  0  0  0  0  0  0
    7.0468   -5.2442    0.0000 C   0  0  0  0  0  0  0  0  0  0  0  0
    6.1889   -4.7491    0.0000 C   0  0  0  0  0  0  0  0  0  0  0  0
    6.1888   -3.8050    0.0000 C   0  0  0  0  0  0  0  0  0  0  0  0
    5.3708   -3.3327    0.0000 C   0  0  0  0  0  0  0  0  0  0  0  0
    4.5528   -3.8052    0.0000 C   0  0  0  0  0  0  0  0  0  0  0  0
    4.5532   -4.7498    0.0000 C   0  0  0  0  0  0  0  0  0  0  0  0
    3.6955   -5.2453    0.0000 C   0  0  0  0  0  0  0  0  0  0  0  0
    5.3709   -5.2216    0.0000 C   0  0  0  0  0  0  0  0  0  0  0  0
    3.7351   -3.3334    0.0000 P   0  3  0  0  0  0  0  0  0  0  0  0
    2.9176   -3.8057    0.0000 C   0  0  0  0  0  0  0  0  0  0  0  0
    2.0196   -3.5143    0.0000 C   0  0  0  0  0  0  0  0  0  0  0  0
    1.3182   -4.1462    0.0000 C   0  0  0  0  0  0  0  0  0  0  0  0
    1.5148   -5.0696    0.0000 C   0  0  0  0  0  0  0  0  0  0  0  0
    2.4128   -5.3611    0.0000 C   0  0  0  0  0  0  0  0  0  0  0  0
    3.1142   -4.7291    0.0000 C   0  0  0  0  0  0  0  0  0  0  0  0
    2.0996   -2.3897    0.0000 C   0  0  0  0  0  0  0  0  0  0  0  0
    1.2018   -2.6817    0.0000 C   0  0  0  0  0  0  0  0  0  0  0  0
    0.5000   -2.0501    0.0000 C   0  0  0  0  0  0  0  0  0  0  0  0
    0.6960   -1.1266    0.0000 C   0  0  0  0  0  0  0  0  0  0  0  0
    1.5939   -0.8347    0.0000 C   0  0  0  0  0  0  0  0  0  0  0  0
    2.2956   -1.4662    0.0000 C   0  0  0  0  0  0  0  0  0  0  0  0
    3.7347   -2.3889    0.0000 C   0  0  0  0  0  0  0  0  0  0  0  0
    4.5527   -1.9164    0.0000 C   0  0  0  0  0  0  0  0  0  0  0  0
    4.5523   -0.9718    0.0000 C   0  0  0  0  0  0  0  0  0  0  0  0
    3.7346   -0.5000    0.0000 C   0  0  0  0  0  0  0  0  0  0  0  0
    2.9166   -0.9725    0.0000 C   0  0  0  0  0  0  0  0  0  0  0  0
    2.9167   -1.9166    0.0000 C   0  0  0  0  0  0  0  0  0  0  0  0
  1  2  2  0  0  0  0
  2  3  2  0  0  0  0
  2  4  1  0  0  0  0
  2  8  1  0  0  0  0
  4  5  1  0  0  0  0
  4  6  1  0  0  0  0
  4  7  1  0  0  0  0
  9 10  1  0  0  0  0
 10 16  2  0  0  0  0
 10 11  1  0  0  0  0
 11 12  2  0  0  0  0
 12 31  1  0  0  0  0
 12 13  1  0  0  0  0
 13 14  2  0  0  0  0
 13 17  1  0  0  0  0
 14 15  1  0  0  0  0
 14 16  1  0  0  0  0
 17 18  1  0  0  0  0
 17 24  1  0  0  0  0
 17 30  1  0  0  0  0
 18 23  2  0  0  0  0
 18 19  1  0  0  0  0
 19 20  2  0  0  0  0
 20 21  1  0  0  0  0
 21 22  2  0  0  0  0
 22 23  1  0  0  0  0
 24 29  2  0  0  0  0
 24 25  1  0  0  0  0
 25 26  2  0  0  0  0
 26 27  1  0  0  0  0
 27 28  2  0  0  0  0
 28 29  1  0  0  0  0
 30 35  2  0  0  0  0
 30 31  1  0  0  0  0
 31 32  2  0  0  0  0
 32 33  1  0  0  0  0
 33 34  2  0  0  0  0
 34 35  1  0  0  0  0
M  END
> <NMREDATA_VERSION>
1.1

> <NMREDATA_LEVEL>
0

> <NMREDATA_SOLVENT>
CDCl3

> <NMREDATA_FORMULA>
C27H22F3O3PS

> <NMREDATA_SMILES>
FC(S(=O)(=O)[O-])(F)F.Cc1cc(C)c2c(-c3ccccc3[P+]2(c2ccccc2)c2ccccc2)c1

> <NMREDATA_ASSIGNMENT>
P17, 24.12, 17

> <NMREDATA_1D_31P>
Larmor=162
24.12, L=P17

$$$$
