
 OpenBabel06112616492D

 34 38  0  0  1  0  0  0  0  0999 V2000
   -4.3067   -1.5243    0.0000 C   0  0  0  0  0  0  0  0  0  0  0  0
   -5.2515   -1.6236    0.0000 N   0  0  0  0  0  0  0  0  0  0  0  0
   -3.3619   -1.4250    0.0000 C   0  0  1  0  0  0  0  0  0  0  0  0
   -4.1347   -3.1607    0.0000 C   0  0  0  0  0  0  0  0  0  0  0  0
   -5.0795   -3.2600    0.0000 C   0  0  0  0  0  0  0  0  0  0  0  0
   -5.6379   -2.4915    0.0000 C   0  0  0  0  0  0  0  0  0  0  0  0
   -6.5827   -2.5908    0.0000 C   0  0  0  0  0  0  0  0  0  0  0  0
   -6.9691   -3.4586    0.0000 C   0  0  0  0  0  0  0  0  0  0  0  0
   -6.4107   -4.2272    0.0000 C   0  0  0  0  0  0  0  0  0  0  0  0
   -5.4659   -4.1279    0.0000 C   0  0  0  0  0  0  0  0  0  0  0  0
   -3.3619   -0.4750    0.0000 N   0  0  0  0  0  0  0  0  0  0  0  0
   -2.4584   -0.1814    0.0000 C   0  0  0  0  0  0  0  0  0  0  0  0
   -1.9000   -0.9500    0.0000 N   0  0  0  0  0  0  0  0  0  0  0  0
    0.0000   -0.9500    0.0000 P   0  0  0  0  0  0  0  0  0  0  0  0
    0.0000   -1.9000    0.0000 O   0  0  0  0  0  0  0  0  0  0  0  0
    0.9500   -0.9500    0.0000 C   0  0  0  0  0  0  0  0  0  0  0  0
    1.4250   -0.1273    0.0000 C   0  0  0  0  0  0  0  0  0  0  0  0
    2.3750   -0.1273    0.0000 C   0  0  0  0  0  0  0  0  0  0  0  0
    2.8500   -0.9500    0.0000 C   0  0  0  0  0  0  0  0  0  0  0  0
    2.3750   -1.7727    0.0000 C   0  0  0  0  0  0  0  0  0  0  0  0
    1.4250   -1.7727    0.0000 C   0  0  0  0  0  0  0  0  0  0  0  0
    0.0000    0.0000    0.0000 C   0  0  0  0  0  0  0  0  0  0  0  0
   -0.8227    0.4750    0.0000 C   0  0  0  0  0  0  0  0  0  0  0  0
   -0.8227    1.4250    0.0000 C   0  0  0  0  0  0  0  0  0  0  0  0
    0.0000    1.9000    0.0000 C   0  0  0  0  0  0  0  0  0  0  0  0
    0.8227    1.4250    0.0000 C   0  0  0  0  0  0  0  0  0  0  0  0
    0.8227    0.4750    0.0000 C   0  0  0  0  0  0  0  0  0  0  0  0
   -2.4584   -1.7186    0.0000 C   0  0  1  0  0  0  0  0  0  0  0  0
   -2.6559   -2.6478    0.0000 C   0  0  0  0  0  0  0  0  0  0  0  0
   -1.7524   -2.3542    0.0000 C   0  0  0  0  0  0  0  0  0  0  0  0
   -0.8232   -2.1567    0.0000 C   0  0  0  0  0  0  0  0  0  0  0  0
   -0.3482   -2.9794    0.0000 C   0  0  0  0  0  0  0  0  0  0  0  0
   -0.9838   -3.6854    0.0000 C   0  0  0  0  0  0  0  0  0  0  0  0
   -1.8517   -3.2990    0.0000 S   0  0  0  0  0  0  0  0  0  0  0  0
  1  2  3  0  0  0  0
  3  1  1  1  0  0  0
  3 28  1  0  0  0  0
  3  4  1  0  0  0  0
  3 11  1  0  0  0  0
  4  5  1  0  0  0  0
  5 10  2  0  0  0  0
  5  6  1  0  0  0  0
  6  7  2  0  0  0  0
  7  8  1  0  0  0  0
  8  9  2  0  0  0  0
  9 10  1  0  0  0  0
 11 12  2  0  0  0  0
 12 13  1  0  0  0  0
 13 14  1  0  0  0  0
 13 28  1  0  0  0  0
 14 15  2  0  0  0  0
 14 16  1  0  0  0  0
 14 22  1  0  0  0  0
 16 21  2  0  0  0  0
 16 17  1  0  0  0  0
 17 18  2  0  0  0  0
 18 19  1  0  0  0  0
 19 20  2  0  0  0  0
 20 21  1  0  0  0  0
 22 27  2  0  0  0  0
 22 23  1  0  0  0  0
 23 24  2  0  0  0  0
 24 25  1  0  0  0  0
 25 26  2  0  0  0  0
 26 27  1  0  0  0  0
 28 29  1  1  0  0  0
 28 30  1  0  0  0  0
 30 34  1  0  0  0  0
 30 31  2  0  0  0  0
 31 32  1  0  0  0  0
 32 33  2  0  0  0  0
 33 34  1  0  0  0  0
M  END
> <NMREDATA_VERSION>
1.1

> <NMREDATA_LEVEL>
0

> <NMREDATA_SOLVENT>
CDCl3

> <NMREDATA_FORMULA>
C28H24N3OPS

> <NMREDATA_SMILES>
N#C[C@]1(N=CN([C@]1(C)c1cccs1)P(=O)(c1ccccc1)c1ccccc1)Cc1ccccc1

> <NMREDATA_ASSIGNMENT>
P14, 22.00, 14

> <NMREDATA_1D_31P>
Larmor=121
22.00, L=P14

$$$$
