
 OpenBabel06112616472D

 30 32  0  0  1  0  0  0  0  0999 V2000
   -3.8788   -1.9394    0.0000 O   0  0  0  0  0  0  0  0  0  0  0  0
   -2.9091   -1.9394    0.0000 C   0  0  0  0  0  0  0  0  0  0  0  0
   -2.4242   -1.0996    0.0000 C   0  0  0  0  0  0  0  0  0  0  0  0
   -1.4545   -1.0996    0.0000 C   0  0  0  0  0  0  0  0  0  0  0  0
   -0.9697   -1.9394    0.0000 C   0  0  0  0  0  0  0  0  0  0  0  0
    0.0000   -1.9394    0.0000 P   0  0  0  0  0  0  0  0  0  0  0  0
    0.0000   -2.9091    0.0000 O   0  0  0  0  0  0  0  0  0  0  0  0
    0.9697   -1.9394    0.0000 C   0  0  0  0  0  0  0  0  0  0  0  0
    1.4545   -1.0996    0.0000 C   0  0  0  0  0  0  0  0  0  0  0  0
    2.4242   -1.0996    0.0000 C   0  0  0  0  0  0  0  0  0  0  0  0
    2.9091   -1.9394    0.0000 C   0  0  0  0  0  0  0  0  0  0  0  0
    3.8788   -1.9394    0.0000 O   0  0  0  0  0  0  0  0  0  0  0  0
    4.3636   -2.7792    0.0000 C   0  0  0  0  0  0  0  0  0  0  0  0
    2.4242   -2.7792    0.0000 C   0  0  0  0  0  0  0  0  0  0  0  0
    1.4545   -2.7792    0.0000 C   0  0  0  0  0  0  0  0  0  0  0  0
    0.0000    0.0000    0.0000 C   0  0  3  0  0  0  0  0  0  0  0  0
    0.8398    0.4848    0.0000 C   0  0  0  0  0  0  0  0  0  0  0  0
    0.8398    1.4545    0.0000 C   0  0  0  0  0  0  0  0  0  0  0  0
    1.6796    1.9394    0.0000 C   0  0  0  0  0  0  0  0  0  0  0  0
    2.5193    1.4545    0.0000 C   0  0  0  0  0  0  0  0  0  0  0  0
    2.5193    0.4848    0.0000 C   0  0  0  0  0  0  0  0  0  0  0  0
    1.6796    0.0000    0.0000 C   0  0  0  0  0  0  0  0  0  0  0  0
   -0.8398    0.4848    0.0000 C   0  0  0  0  0  0  0  0  0  0  0  0
   -0.8398    1.4545    0.0000 C   0  0  0  0  0  0  0  0  0  0  0  0
   -0.8398    2.4242    0.0000 N   0  0  0  0  0  0  0  0  0  0  0  0
   -1.6796    0.0000    0.0000 C   0  0  0  0  0  0  0  0  0  0  0  0
   -2.5193   -0.4848    0.0000 N   0  0  0  0  0  0  0  0  0  0  0  0
   -1.4545   -2.7792    0.0000 C   0  0  0  0  0  0  0  0  0  0  0  0
   -2.4242   -2.7792    0.0000 C   0  0  0  0  0  0  0  0  0  0  0  0
   -4.3636   -1.0996    0.0000 C   0  0  0  0  0  0  0  0  0  0  0  0
  1  2  1  0  0  0  0
  1 30  1  0  0  0  0
  2 29  2  0  0  0  0
  2  3  1  0  0  0  0
  3  4  2  0  0  0  0
  4  5  1  0  0  0  0
  5  6  1  0  0  0  0
  5 28  2  0  0  0  0
  6  7  2  0  0  0  0
  6  8  1  0  0  0  0
  6 16  1  0  0  0  0
  8 15  2  0  0  0  0
  8  9  1  0  0  0  0
  9 10  2  0  0  0  0
 10 11  1  0  0  0  0
 11 12  1  0  0  0  0
 11 14  2  0  0  0  0
 12 13  1  0  0  0  0
 14 15  1  0  0  0  0
 16 17  1  0  0  0  0
 16 23  1  0  0  0  0
 17 22  2  0  0  0  0
 17 18  1  0  0  0  0
 18 19  2  0  0  0  0
 19 20  1  0  0  0  0
 20 21  2  0  0  0  0
 21 22  1  0  0  0  0
 23 24  1  0  0  0  0
 23 26  1  0  0  0  0
 24 25  3  0  0  0  0
 26 27  3  0  0  0  0
 28 29  1  0  0  0  0
M  END
> <NMREDATA_VERSION>
1.1

> <NMREDATA_LEVEL>
0

> <NMREDATA_SOLVENT>
CDCl3

> <NMREDATA_FORMULA>
C24H21N2O3P

> <NMREDATA_SMILES>
N#CC(C(P(=O)(c1ccc(cc1)OC)c1ccc(cc1)OC)c1ccccc1)C#N

> <NMREDATA_ASSIGNMENT>
P6, 29.30, 6

> <NMREDATA_1D_31P>
Larmor=162
29.30, L=P6

$$$$
