
 OpenBabel06112616422D

 32 36  0  0  0  0  0  0  0  0999 V2000
   -3.4054    3.2401    0.0000 C   0  0  0  0  0  0  0  0  0  0  0  0
   -3.8919    2.3975    0.0000 C   0  0  0  0  0  0  0  0  0  0  0  0
   -4.8649    2.3975    0.0000 O   0  0  0  0  0  0  0  0  0  0  0  0
   -3.4054    1.5549    0.0000 C   0  0  0  0  0  0  0  0  0  0  0  0
   -2.4324    1.5549    0.0000 C   0  0  0  0  0  0  0  0  0  0  0  0
   -1.9459    0.7123    0.0000 C   0  0  0  0  0  0  0  0  0  0  0  0
   -2.4324   -0.1304    0.0000 C   0  0  0  0  0  0  0  0  0  0  0  0
   -1.9459   -0.9730    0.0000 C   0  0  0  0  0  0  0  0  0  0  0  0
    0.0000   -0.9730    0.0000 P   0  0  0  0  0  0  0  0  0  0  0  0
    0.0000   -1.9459    0.0000 C   0  0  0  0  0  0  0  0  0  0  0  0
    0.8426   -2.4324    0.0000 C   0  0  0  0  0  0  0  0  0  0  0  0
    0.8426   -3.4054    0.0000 C   0  0  0  0  0  0  0  0  0  0  0  0
    0.0000   -3.8919    0.0000 C   0  0  0  0  0  0  0  0  0  0  0  0
   -0.8426   -3.4054    0.0000 C   0  0  0  0  0  0  0  0  0  0  0  0
   -0.8426   -2.4324    0.0000 C   0  0  0  0  0  0  0  0  0  0  0  0
    0.9730   -0.9730    0.0000 C   0  0  0  0  0  0  0  0  0  0  0  0
    1.4595   -0.1304    0.0000 C   0  0  0  0  0  0  0  0  0  0  0  0
    2.4324   -0.1304    0.0000 C   0  0  0  0  0  0  0  0  0  0  0  0
    2.9189   -0.9730    0.0000 C   0  0  0  0  0  0  0  0  0  0  0  0
    2.4324   -1.8156    0.0000 C   0  0  0  0  0  0  0  0  0  0  0  0
    1.4595   -1.8156    0.0000 C   0  0  0  0  0  0  0  0  0  0  0  0
    0.0000    0.0000    0.0000 O   0  0  0  0  0  0  0  0  0  0  0  0
   -2.4324   -1.8156    0.0000 C   0  0  0  0  0  0  0  0  0  0  0  0
   -1.9459   -2.6582    0.0000 C   0  0  0  0  0  0  0  0  0  0  0  0
   -3.4054   -1.8156    0.0000 C   0  0  0  0  0  0  0  0  0  0  0  0
   -3.8919   -2.6582    0.0000 C   0  0  0  0  0  0  0  0  0  0  0  0
   -4.8649   -2.6582    0.0000 C   0  0  0  0  0  0  0  0  0  0  0  0
   -5.3514   -1.8156    0.0000 C   0  0  0  0  0  0  0  0  0  0  0  0
   -4.8649   -0.9730    0.0000 C   0  0  0  0  0  0  0  0  0  0  0  0
   -3.8919   -0.9730    0.0000 C   0  0  0  0  0  0  0  0  0  0  0  0
   -3.4054   -0.1304    0.0000 C   0  0  0  0  0  0  0  0  0  0  0  0
   -3.8919    0.7123    0.0000 C   0  0  0  0  0  0  0  0  0  0  0  0
  1  2  1  0  0  0  0
  2  3  2  0  0  0  0
  2  4  1  0  0  0  0
  4 32  2  0  0  0  0
  4  5  1  0  0  0  0
  5  6  2  0  0  0  0
  6  7  1  0  0  0  0
  7 31  2  0  0  0  0
  7  8  1  0  0  0  0
  8  9  1  0  0  0  0
  8 23  2  0  0  0  0
  9 10  1  0  0  0  0
  9 16  1  0  0  0  0
  9 22  2  0  0  0  0
 10 15  2  0  0  0  0
 10 11  1  0  0  0  0
 11 12  2  0  0  0  0
 12 13  1  0  0  0  0
 13 14  2  0  0  0  0
 14 15  1  0  0  0  0
 16 21  2  0  0  0  0
 16 17  1  0  0  0  0
 17 18  2  0  0  0  0
 18 19  1  0  0  0  0
 19 20  2  0  0  0  0
 20 21  1  0  0  0  0
 23 24  1  0  0  0  0
 23 25  1  0  0  0  0
 25 30  2  0  0  0  0
 25 26  1  0  0  0  0
 26 27  2  0  0  0  0
 27 28  1  0  0  0  0
 28 29  2  0  0  0  0
 29 30  1  0  0  0  0
 30 31  1  0  0  0  0
 31 32  1  0  0  0  0
M  END
> <NMREDATA_VERSION>
1.1

> <NMREDATA_LEVEL>
0

> <NMREDATA_SOLVENT>
CDCl3

> <NMREDATA_FORMULA>
C29H23O2P

> <NMREDATA_SMILES>
CC(=O)c1ccc2c(c1)c1ccccc1c(c2P(=O)(c1ccccc1)c1ccccc1)C

> <NMREDATA_ASSIGNMENT>
P9, 29.79, 9

> <NMREDATA_1D_31P>
Larmor=162
29.79, L=P9

$$$$
