
 OpenBabel06112616432D

 24 25  0  0  1  0  0  0  0  0999 V2000
    1.7321   -1.0000    0.0000 O   0  0  0  0  0  0  0  0  0  0  0  0
    2.5981   -1.5000    0.0000 C   0  0  0  0  0  0  0  0  0  0  0  0
    3.4641   -1.0000    0.0000 C   0  0  2  0  0  0  0  0  0  0  0  0
    4.3301   -1.5000    0.0000 C   0  0  0  0  0  0  0  0  0  0  0  0
    4.3301   -2.5000    0.0000 C   0  0  0  0  0  0  0  0  0  0  0  0
    3.4641    0.0000    0.0000 O   0  0  0  0  0  0  0  0  0  0  0  0
    4.3301    0.5000    0.0000 P   0  0  2  0  0  0  0  0  0  0  0  0
    4.1996    1.4914    0.0000 O   0  0  0  0  0  0  0  0  0  0  0  0
    5.0372    1.2071    0.0000 O   0  0  0  0  0  0  0  0  0  0  0  0
    6.0032    0.9483    0.0000 C   0  0  2  0  0  0  0  0  0  0  0  0
    6.7103    1.6554    0.0000 C   0  0  0  0  0  0  0  0  0  0  0  0
    7.6762    1.3966    0.0000 C   0  0  0  0  0  0  0  0  0  0  0  0
    6.2620   -0.0176    0.0000 C   0  0  0  0  0  0  0  0  0  0  0  0
    5.5549   -0.7247    0.0000 C   0  0  1  0  0  0  0  0  0  0  0  0
    5.8137   -1.6907    0.0000 C   0  0  0  0  0  0  0  0  0  0  0  0
    6.7796   -1.9495    0.0000 C   0  0  0  0  0  0  0  0  0  0  0  0
    4.5889   -0.4659    0.0000 O   0  0  0  0  0  0  0  0  0  0  0  0
    0.8660   -1.5000    0.0000 C   0  0  0  0  0  0  0  0  0  0  0  0
    0.0000   -1.0000    0.0000 C   0  0  0  0  0  0  0  0  0  0  0  0
   -0.8660   -1.5000    0.0000 C   0  0  0  0  0  0  0  0  0  0  0  0
   -1.7321   -1.0000    0.0000 C   0  0  0  0  0  0  0  0  0  0  0  0
   -1.7321    0.0000    0.0000 C   0  0  0  0  0  0  0  0  0  0  0  0
   -0.8660    0.5000    0.0000 C   0  0  0  0  0  0  0  0  0  0  0  0
    0.0000    0.0000    0.0000 C   0  0  0  0  0  0  0  0  0  0  0  0
  1  2  1  0  0  0  0
  1 18  1  0  0  0  0
  3  2  1  1  0  0  0
  3  4  1  0  0  0  0
  3  6  1  0  0  0  0
  4  5  2  0  0  0  0
  6  7  1  0  0  0  0
  7 17  1  0  0  0  0
  7  8  2  1  0  0  0
  7  9  1  0  0  0  0
  9 10  1  0  0  0  0
 10 11  1  6  0  0  0
 10 13  1  0  0  0  0
 11 12  2  0  0  0  0
 13 14  1  0  0  0  0
 14 15  1  1  0  0  0
 14 17  1  0  0  0  0
 15 16  2  0  0  0  0
 18 19  1  0  0  0  0
 19 24  2  0  0  0  0
 19 20  1  0  0  0  0
 20 21  2  0  0  0  0
 21 22  1  0  0  0  0
 22 23  2  0  0  0  0
 23 24  1  0  0  0  0
M  END
> <NMREDATA_VERSION>
1.1

> <NMREDATA_LEVEL>
0

> <NMREDATA_SOLVENT>
CDCl3

> <NMREDATA_FORMULA>
C18H23O5P

> <NMREDATA_SMILES>
C=C[C@H](O[P@]1(=O)O[C@H](C=C)C[C@H](O1)C=C)COCc1ccccc1

> <NMREDATA_ASSIGNMENT>
P7, -8.37, 7

> <NMREDATA_1D_31P>
Larmor=162
-8.37, L=P7

$$$$
