
 OpenBabel06112616432D

 37 42  0  0  0  0  0  0  0  0999 V2000
    0.0000   -0.9767    0.0000 P    0  0  3  0  0  0  0  0  0  0  0  0
    0.0000   -1.9535    0.0000 C    0  0  0  0  0  0  0  0  0  0  0  0
    0.9767   -0.9767    0.0000 S    0  0  0  0  0  0  0  0  0  0  0  0
   -0.9767   -0.9767    0.0000 C    0  0  0  0  0  0  0  0  0  0  0  0
   -1.4651   -0.1309    0.0000 C    0  0  0  0  0  0  0  0  0  0  0  0
   -2.4419   -0.1309    0.0000 C    0  0  0  0  0  0  0  0  0  0  0  0
   -2.9302   -0.9767    0.0000 C    0  0  0  0  0  0  0  0  0  0  0  0
   -3.9070   -0.9767    0.0000 C    0  0  0  0  0  0  0  0  0  0  0  0
   -4.3953   -1.8226    0.0000 C    0  0  0  0  0  0  0  0  0  0  0  0
   -3.9070   -2.6685    0.0000 C    0  0  0  0  0  0  0  0  0  0  0  0
   -2.9302   -2.6685    0.0000 C    0  0  0  0  0  0  0  0  0  0  0  0
   -2.4419   -1.8226    0.0000 C    0  0  0  0  0  0  0  0  0  0  0  0
   -1.4651   -1.8226    0.0000 C    0  0  0  0  0  0  0  0  0  0  0  0
   -0.4884   -3.5144    0.0000 C    0  0  0  0  0  0  0  0  0  0  0  0
   -0.9767   -4.3603    0.0000 C    0  0  0  0  0  0  0  0  0  0  0  0
   -1.9535   -4.3603    0.0000 C    0  0  0  0  0  0  0  0  0  0  0  0
   -2.5276   -3.5701    0.0000 N    0  0  0  0  0  0  0  0  0  0  0  0
   -3.4565   -3.8719    0.0000 C    0  0  0  0  0  0  0  0  0  0  0  0
   -4.3024   -3.3835    0.0000 C    0  0  0  0  0  0  0  0  0  0  0  0
   -5.1483   -3.8719    0.0000 C    0  0  0  0  0  0  0  0  0  0  0  0
   -5.9942   -3.3835    0.0000 Cl   0  0  0  0  0  0  0  0  0  0  0  0
   -5.1483   -4.8487    0.0000 C    0  0  0  0  0  0  0  0  0  0  0  0
   -4.3024   -5.3370    0.0000 C    0  0  0  0  0  0  0  0  0  0  0  0
   -3.4565   -4.8487    0.0000 C    0  0  0  0  0  0  0  0  0  0  0  0
   -2.5276   -5.1505    0.0000 O    0  0  0  0  0  0  0  0  0  0  0  0
   -0.4884   -5.2062    0.0000 C    0  0  0  0  0  0  0  0  0  0  0  0
    0.4884   -5.2062    0.0000 C    0  0  0  0  0  0  0  0  0  0  0  0
    0.9767   -4.3603    0.0000 C    0  0  0  0  0  0  0  0  0  0  0  0
    1.9535   -4.3603    0.0000 C    0  0  0  0  0  0  0  0  0  0  0  0
    2.4419   -3.5144    0.0000 C    0  0  0  0  0  0  0  0  0  0  0  0
    1.9535   -2.6685    0.0000 C    0  0  0  0  0  0  0  0  0  0  0  0
    0.9767   -2.6685    0.0000 C    0  0  0  0  0  0  0  0  0  0  0  0
    0.4884   -3.5144    0.0000 C    0  0  0  0  0  0  0  0  0  0  0  0
    0.0000    0.0000    0.0000 C    0  0  0  0  0  0  0  0  0  0  0  0
   -0.4884    0.8459    0.0000 C    0  0  0  0  0  0  0  0  0  0  0  0
   -0.9767    0.0000    0.0000 C    0  0  0  0  0  0  0  0  0  0  0  0
    0.8459    0.4884    0.0000 C    0  0  0  0  0  0  0  0  0  0  0  0
  1  2  1  0  0  0  0
  1  3  2  0  0  0  0
  1  4  1  0  0  0  0
  1 34  1  0  0  0  0
  4 13  2  0  0  0  0
  4  5  1  0  0  0  0
  5  6  2  0  0  0  0
  6  7  1  0  0  0  0
  7 12  2  0  0  0  0
  7  8  1  0  0  0  0
  8  9  2  0  0  0  0
  9 10  1  0  0  0  0
 10 11  2  0  0  0  0
 11 12  1  0  0  0  0
 12 13  1  0  0  0  0
 13 14  1  0  0  0  0
 14 33  2  0  0  0  0
 14 15  1  0  0  0  0
 15 16  1  0  0  0  0
 15 26  2  0  0  0  0
 16 25  1  0  0  0  0
 16 17  2  0  0  0  0
 17 18  1  0  0  0  0
 18 24  2  0  0  0  0
 18 19  1  0  0  0  0
 19 20  2  0  0  0  0
 20 21  1  0  0  0  0
 20 22  1  0  0  0  0
 22 23  2  0  0  0  0
 23 24  1  0  0  0  0
 24 25  1  0  0  0  0
 26 27  1  0  0  0  0
 27 28  2  0  0  0  0
 28 33  1  0  0  0  0
 28 29  1  0  0  0  0
 29 30  2  0  0  0  0
 30 31  1  0  0  0  0
 31 32  2  0  0  0  0
 32 33  1  0  0  0  0
 34 35  1  0  0  0  0
 34 36  1  0  0  0  0
 34 37  1  0  0  0  0
M  END
> <NMREDATA_VERSION>
1.1

> <NMREDATA_LEVEL>
0

> <NMREDATA_SOLVENT>
CDCl3

> <NMREDATA_FORMULA>
C32H27ClNOPS

> <NMREDATA_SMILES>
Clc1ccc2c(c1)nc(o2)c1ccc2c(c1c1c3ccccc3ccc1P(=S)(C(C)(C)C)C)cccc2

> <NMREDATA_ASSIGNMENT>
P1, 60.96, 1

> <NMREDATA_1D_31P>
Larmor=243
60.96, L=P1

$$$$
