
 OpenBabel06112616482D

 26 27  0  0  1  0  0  0  0  0999 V2000
    8.9529    1.4324    0.0000 C   0  0  0  0  0  0  0  0  0  0  0  0
    9.6601    2.1395    0.0000 C   0  0  0  0  0  0  0  0  0  0  0  0
    9.4012    3.1055    0.0000 O   0  0  0  0  0  0  0  0  0  0  0  0
    7.9870    1.6912    0.0000 C   0  0  0  0  0  0  0  0  0  0  0  0
    7.2799    0.9841    0.0000 C   0  0  0  0  0  0  0  0  0  0  0  0
    6.3140    1.2430    0.0000 C   0  0  0  0  0  0  0  0  0  0  0  0
    5.6069    0.5358    0.0000 C   0  0  0  0  0  0  0  0  0  0  0  0
    4.6410    0.7947    0.0000 C   0  0  0  0  0  0  0  0  0  0  0  0
    3.9339    0.0876    0.0000 C   0  0  0  0  0  0  0  0  0  0  0  0
    2.9679    0.3464    0.0000 C   0  0  0  0  0  0  0  0  0  0  0  0
    2.2608   -0.3607    0.0000 C   0  0  0  0  0  0  0  0  0  0  0  0
    1.2949   -0.1019    0.0000 C   0  0  0  0  0  0  0  0  0  0  0  0
    0.5878   -0.8090    0.0000 P   0  0  1  0  0  0  0  0  0  0  0  0
    1.1401   -1.6427    0.0000 S   0  0  0  0  0  0  0  0  0  0  0  0
    0.0000   -1.6180    0.0000 O   0  0  0  0  0  0  0  0  0  0  0  0
   -0.9511   -1.3090    0.0000 C   0  0  2  0  0  0  0  0  0  0  0  0
   -1.3578   -2.2226    0.0000 C   0  0  0  0  0  0  0  0  0  0  0  0
   -1.8171   -1.8090    0.0000 C   0  0  0  0  0  0  0  0  0  0  0  0
   -2.6831   -1.3090    0.0000 C   0  0  0  0  0  0  0  0  0  0  0  0
   -2.6831   -0.3090    0.0000 C   0  0  1  0  0  0  0  0  0  0  0  0
   -3.5491    0.1910    0.0000 C   0  0  0  0  0  0  0  0  0  0  0  0
   -3.5491    1.1910    0.0000 C   0  0  0  0  0  0  0  0  0  0  0  0
   -4.4152   -0.3090    0.0000 C   0  0  0  0  0  0  0  0  0  0  0  0
   -1.8171    0.1910    0.0000 C   0  0  0  0  0  0  0  0  0  0  0  0
   -0.9511   -0.3090    0.0000 C   0  0  1  0  0  0  0  0  0  0  0  0
    0.0000    0.0000    0.0000 S   0  0  0  0  0  0  0  0  0  0  0  0
  1  2  1  0  0  0  0
  1  4  1  0  0  0  0
  2  3  2  0  0  0  0
  4  5  1  0  0  0  0
  5  6  1  0  0  0  0
  6  7  1  0  0  0  0
  7  8  1  0  0  0  0
  8  9  1  0  0  0  0
  9 10  1  0  0  0  0
 10 11  1  0  0  0  0
 11 12  1  0  0  0  0
 12 13  1  0  0  0  0
 13 26  1  0  0  0  0
 13 14  2  6  0  0  0
 13 15  1  0  0  0  0
 15 16  1  0  0  0  0
 16 25  1  0  0  0  0
 16 17  1  1  0  0  0
 16 18  1  0  0  0  0
 18 19  1  0  0  0  0
 19 20  1  0  0  0  0
 20 21  1  1  0  0  0
 20 24  1  0  0  0  0
 21 22  1  0  0  0  0
 21 23  1  0  0  0  0
 25 24  1  1  0  0  0
 25 26  1  0  0  0  0
M  END
> <NMREDATA_VERSION>
1.1

> <NMREDATA_LEVEL>
0

> <NMREDATA_SOLVENT>
CDCl3

> <NMREDATA_FORMULA>
C21H39O2PS2

> <NMREDATA_SMILES>
O=CCCCCCCCCCC[P@]1(=S)S[C@H]2[C@@](O1)(C)CC[C@H](C2)C(C)C

> <NMREDATA_ASSIGNMENT>
P13, 113.60, 13

> <NMREDATA_1D_31P>
Larmor=162
113.60, L=P13

$$$$
