
 OpenBabel06112616482D

 33 36  0  0  1  0  0  0  0  0999 V2000
   -1.0896    2.3978    0.0000 C   0  0  0  0  0  0  0  0  0  0  0  0
   -2.0555    2.1390    0.0000 C   0  0  0  0  0  0  0  0  0  0  0  0
   -2.3143    1.1730    0.0000 O   0  0  0  0  0  0  0  0  0  0  0  0
   -1.6072    0.4659    0.0000 C   0  0  0  0  0  0  0  0  0  0  0  0
   -0.6413    0.7247    0.0000 O   0  0  0  0  0  0  0  0  0  0  0  0
   -1.8660   -0.5000    0.0000 C   0  0  0  0  0  0  0  0  0  0  0  0
   -2.7694   -0.0711    0.0000 C   0  0  0  0  0  0  0  0  0  0  0  0
   -2.8496    0.9257    0.0000 O   0  0  0  0  0  0  0  0  0  0  0  0
   -3.5925   -0.6390    0.0000 O   0  0  0  0  0  0  0  0  0  0  0  0
   -4.4958   -0.2101    0.0000 C   0  0  0  0  0  0  0  0  0  0  0  0
   -4.5761    0.7867    0.0000 C   0  0  0  0  0  0  0  0  0  0  0  0
   -1.8660   -1.5000    0.0000 C   0  0  3  0  0  0  0  0  0  0  0  0
   -2.3660   -2.3660    0.0000 C   0  0  0  0  0  0  0  0  0  0  0  0
   -3.3660   -2.3660    0.0000 C   0  0  0  0  0  0  0  0  0  0  0  0
   -3.8660   -3.2321    0.0000 C   0  0  0  0  0  0  0  0  0  0  0  0
   -3.3660   -4.0981    0.0000 C   0  0  0  0  0  0  0  0  0  0  0  0
   -2.3660   -4.0981    0.0000 C   0  0  0  0  0  0  0  0  0  0  0  0
   -1.8660   -3.2321    0.0000 C   0  0  0  0  0  0  0  0  0  0  0  0
   -1.0000   -1.0000    0.0000 N   0  0  0  0  0  0  0  0  0  0  0  0
    0.0000   -1.0000    0.0000 P   0  0  0  0  0  0  0  0  0  0  0  0
    0.0000   -2.0000    0.0000 C   0  0  0  0  0  0  0  0  0  0  0  0
    0.8660   -2.5000    0.0000 C   0  0  0  0  0  0  0  0  0  0  0  0
    0.8660   -3.5000    0.0000 C   0  0  0  0  0  0  0  0  0  0  0  0
    0.0000   -4.0000    0.0000 C   0  0  0  0  0  0  0  0  0  0  0  0
   -0.8660   -3.5000    0.0000 C   0  0  0  0  0  0  0  0  0  0  0  0
   -0.8660   -2.5000    0.0000 C   0  0  0  0  0  0  0  0  0  0  0  0
    1.0000   -1.0000    0.0000 C   0  0  0  0  0  0  0  0  0  0  0  0
    1.5000   -0.1340    0.0000 C   0  0  0  0  0  0  0  0  0  0  0  0
    2.5000   -0.1340    0.0000 C   0  0  0  0  0  0  0  0  0  0  0  0
    3.0000   -1.0000    0.0000 C   0  0  0  0  0  0  0  0  0  0  0  0
    2.5000   -1.8660    0.0000 C   0  0  0  0  0  0  0  0  0  0  0  0
    1.5000   -1.8660    0.0000 C   0  0  0  0  0  0  0  0  0  0  0  0
    0.0000    0.0000    0.0000 O   0  0  0  0  0  0  0  0  0  0  0  0
  1  2  1  0  0  0  0
  2  3  1  0  0  0  0
  3  4  1  0  0  0  0
  4  5  2  0  0  0  0
  4  6  1  0  0  0  0
  6 19  1  0  0  0  0
  6  7  1  0  0  0  0
  6 12  1  0  0  0  0
  7  8  2  0  0  0  0
  7  9  1  0  0  0  0
  9 10  1  0  0  0  0
 10 11  1  0  0  0  0
 12 13  1  0  0  0  0
 12 19  1  0  0  0  0
 13 18  2  0  0  0  0
 13 14  1  0  0  0  0
 14 15  2  0  0  0  0
 15 16  1  0  0  0  0
 16 17  2  0  0  0  0
 17 18  1  0  0  0  0
 19 20  1  0  0  0  0
 20 21  1  0  0  0  0
 20 27  1  0  0  0  0
 20 33  2  0  0  0  0
 21 26  2  0  0  0  0
 21 22  1  0  0  0  0
 22 23  2  0  0  0  0
 23 24  1  0  0  0  0
 24 25  2  0  0  0  0
 25 26  1  0  0  0  0
 27 32  2  0  0  0  0
 27 28  1  0  0  0  0
 28 29  2  0  0  0  0
 29 30  1  0  0  0  0
 30 31  2  0  0  0  0
 31 32  1  0  0  0  0
M  END
> <NMREDATA_VERSION>
1.1

> <NMREDATA_LEVEL>
0

> <NMREDATA_SOLVENT>
CDCl3

> <NMREDATA_FORMULA>
C26H26NO5P

> <NMREDATA_SMILES>
CCOC(=O)C1(C(=O)OCC)C(N1P(=O)(c1ccccc1)c1ccccc1)c1ccccc1

> <NMREDATA_ASSIGNMENT>
P20, 28.10, 20

> <NMREDATA_1D_31P>
Larmor=162
28.10, L=P20

$$$$
