
 OpenBabel06112616482D

 27 29  0  0  1  0  0  0  0  0999 V2000
   -3.1906   -0.5000    0.0000 C   0  0  1  0  0  0  0  0  0  0  0  0
   -4.0916   -0.0661    0.0000 C   0  0  0  0  0  0  0  0  0  0  0  0
   -4.9179   -0.6294    0.0000 C   0  0  0  0  0  0  0  0  0  0  0  0
   -5.8188   -0.1956    0.0000 C   0  0  0  0  0  0  0  0  0  0  0  0
   -5.8935    0.8017    0.0000 C   0  0  0  0  0  0  0  0  0  0  0  0
   -5.0673    1.3650    0.0000 C   0  0  0  0  0  0  0  0  0  0  0  0
   -4.1663    0.9311    0.0000 C   0  0  0  0  0  0  0  0  0  0  0  0
   -2.4088    0.1235    0.0000 C   0  0  0  0  0  0  0  0  0  0  0  0
   -1.4339   -0.0990    0.0000 C   0  0  0  0  0  0  0  0  0  0  0  0
   -1.0000   -1.0000    0.0000 C   0  0  3  0  0  0  0  0  0  0  0  0
    0.0000   -1.0000    0.0000 P   0  0  0  0  0  0  0  0  0  0  0  0
    0.0000   -2.0000    0.0000 O   0  0  0  0  0  0  0  0  0  0  0  0
    1.0000   -1.0000    0.0000 O   0  0  0  0  0  0  0  0  0  0  0  0
    1.5000   -1.8660    0.0000 C   0  0  0  0  0  0  0  0  0  0  0  0
    2.5000   -1.8660    0.0000 C   0  0  0  0  0  0  0  0  0  0  0  0
    0.0000    0.0000    0.0000 O   0  0  0  0  0  0  0  0  0  0  0  0
    0.8660    0.5000    0.0000 C   0  0  0  0  0  0  0  0  0  0  0  0
    1.7321    0.0000    0.0000 C   0  0  0  0  0  0  0  0  0  0  0  0
   -1.4339   -1.9010    0.0000 C   0  0  0  0  0  0  0  0  0  0  0  0
   -2.4088   -2.1235    0.0000 C   0  0  0  0  0  0  0  0  0  0  0  0
   -3.1906   -1.5000    0.0000 C   0  0  1  0  0  0  0  0  0  0  0  0
   -4.0916   -1.9339    0.0000 C   0  0  0  0  0  0  0  0  0  0  0  0
   -4.1663   -2.9311    0.0000 C   0  0  0  0  0  0  0  0  0  0  0  0
   -5.0673   -3.3650    0.0000 C   0  0  0  0  0  0  0  0  0  0  0  0
   -5.8935   -2.8017    0.0000 C   0  0  0  0  0  0  0  0  0  0  0  0
   -5.8188   -1.8044    0.0000 C   0  0  0  0  0  0  0  0  0  0  0  0
   -4.9179   -1.3706    0.0000 C   0  0  0  0  0  0  0  0  0  0  0  0
  1  2  1  1  0  0  0
  1 21  1  0  0  0  0
  1  8  1  0  0  0  0
  2  7  2  0  0  0  0
  2  3  1  0  0  0  0
  3  4  2  0  0  0  0
  4  5  1  0  0  0  0
  5  6  2  0  0  0  0
  6  7  1  0  0  0  0
  8  9  2  0  0  0  0
  9 10  1  0  0  0  0
 10 11  1  0  0  0  0
 10 19  1  0  0  0  0
 11 12  2  0  0  0  0
 11 13  1  0  0  0  0
 11 16  1  0  0  0  0
 13 14  1  0  0  0  0
 14 15  1  0  0  0  0
 16 17  1  0  0  0  0
 17 18  1  0  0  0  0
 19 20  2  0  0  0  0
 20 21  1  0  0  0  0
 21 22  1  1  0  0  0
 22 27  2  0  0  0  0
 22 23  1  0  0  0  0
 23 24  2  0  0  0  0
 24 25  1  0  0  0  0
 25 26  2  0  0  0  0
 26 27  1  0  0  0  0
M  END
> <NMREDATA_VERSION>
1.1

> <NMREDATA_LEVEL>
0

> <NMREDATA_SOLVENT>
CDCl3

> <NMREDATA_FORMULA>
C23H27O3P

> <NMREDATA_SMILES>
CCOP(=O)(C1C=C[C@H]([C@H](C=C1)c1ccccc1)c1ccccc1)OCC

> <NMREDATA_ASSIGNMENT>
P11, 20.10, 11

> <NMREDATA_1D_31P>
Larmor=202
20.10, L=P11

$$$$
