
 OpenBabel06112616462D

 38 42  0  0  0  0  0  0  0  0999 V2000
   -0.9767   -0.9767    0.0000 O   0  0  0  0  0  0  0  0  0  0  0  0
    0.0000   -0.9767    0.0000 P   0  0  0  0  0  0  0  0  0  0  0  0
    0.0000   -2.9302    0.0000 C   0  0  0  0  0  0  0  0  0  0  0  0
    0.8459   -3.4186    0.0000 C   0  0  0  0  0  0  0  0  0  0  0  0
    0.8459   -4.3953    0.0000 C   0  0  0  0  0  0  0  0  0  0  0  0
    0.0000   -4.8837    0.0000 C   0  0  0  0  0  0  0  0  0  0  0  0
   -0.8459   -4.3953    0.0000 C   0  0  0  0  0  0  0  0  0  0  0  0
   -0.8459   -3.4186    0.0000 C   0  0  0  0  0  0  0  0  0  0  0  0
    0.9767   -0.9767    0.0000 C   0  0  0  0  0  0  0  0  0  0  0  0
    1.4651   -0.1309    0.0000 C   0  0  0  0  0  0  0  0  0  0  0  0
    2.4419   -0.1309    0.0000 C   0  0  0  0  0  0  0  0  0  0  0  0
    2.9302   -0.9767    0.0000 C   0  0  0  0  0  0  0  0  0  0  0  0
    2.4419   -1.8226    0.0000 C   0  0  0  0  0  0  0  0  0  0  0  0
    1.4651   -1.8226    0.0000 C   0  0  0  0  0  0  0  0  0  0  0  0
    0.0000    0.0000    0.0000 C   0  0  0  0  0  0  0  0  0  0  0  0
    0.8459    0.4884    0.0000 C   0  0  0  0  0  0  0  0  0  0  0  0
    0.8459    1.4651    0.0000 C   0  0  0  0  0  0  0  0  0  0  0  0
    0.0000    1.9535    0.0000 C   0  0  0  0  0  0  0  0  0  0  0  0
   -0.8459    1.4651    0.0000 C   0  0  0  0  0  0  0  0  0  0  0  0
   -0.8459    0.4884    0.0000 C   0  0  0  0  0  0  0  0  0  0  0  0
   -1.6918    0.0000    0.0000 C   0  0  0  0  0  0  0  0  0  0  0  0
   -2.5377    0.4884    0.0000 C   0  0  0  0  0  0  0  0  0  0  0  0
   -2.5377    1.4651    0.0000 O   0  0  0  0  0  0  0  0  0  0  0  0
   -3.3835    1.9535    0.0000 S   0  0  0  0  0  0  0  0  0  0  0  0
   -2.8952    2.7994    0.0000 O   0  0  0  0  0  0  0  0  0  0  0  0
   -4.2294    2.4419    0.0000 O   0  0  0  0  0  0  0  0  0  0  0  0
   -3.8719    1.1076    0.0000 C   0  0  0  0  0  0  0  0  0  0  0  0
   -3.8719    0.1309    0.0000 F   0  0  0  0  0  0  0  0  0  0  0  0
   -3.0260    0.6192    0.0000 F   0  0  0  0  0  0  0  0  0  0  0  0
   -4.8487    1.1076    0.0000 F   0  0  0  0  0  0  0  0  0  0  0  0
   -3.3835    0.0000    0.0000 C   0  0  0  0  0  0  0  0  0  0  0  0
   -3.3835   -0.9767    0.0000 C   0  0  0  0  0  0  0  0  0  0  0  0
   -2.5377   -1.4651    0.0000 C   0  0  0  0  0  0  0  0  0  0  0  0
   -2.5377   -2.4419    0.0000 C   0  0  0  0  0  0  0  0  0  0  0  0
   -1.6918   -2.9302    0.0000 C   0  0  0  0  0  0  0  0  0  0  0  0
   -0.8459   -2.4419    0.0000 C   0  0  0  0  0  0  0  0  0  0  0  0
   -0.8459   -1.4651    0.0000 C   0  0  0  0  0  0  0  0  0  0  0  0
   -1.6918   -0.9767    0.0000 C   0  0  0  0  0  0  0  0  0  0  0  0
  1  2  2  0  0  0  0
  2  3  1  0  0  0  0
  2  9  1  0  0  0  0
  2 15  1  0  0  0  0
  3  8  2  0  0  0  0
  3  4  1  0  0  0  0
  4  5  2  0  0  0  0
  5  6  1  0  0  0  0
  6  7  2  0  0  0  0
  7  8  1  0  0  0  0
  9 14  2  0  0  0  0
  9 10  1  0  0  0  0
 10 11  2  0  0  0  0
 11 12  1  0  0  0  0
 12 13  2  0  0  0  0
 13 14  1  0  0  0  0
 15 20  2  0  0  0  0
 15 16  1  0  0  0  0
 16 17  2  0  0  0  0
 17 18  1  0  0  0  0
 18 19  2  0  0  0  0
 19 20  1  0  0  0  0
 20 21  1  0  0  0  0
 21 38  2  0  0  0  0
 21 22  1  0  0  0  0
 22 23  1  0  0  0  0
 22 31  2  0  0  0  0
 23 24  1  0  0  0  0
 24 25  2  0  0  0  0
 24 26  2  0  0  0  0
 24 27  1  0  0  0  0
 27 28  1  0  0  0  0
 27 29  1  0  0  0  0
 27 30  1  0  0  0  0
 31 32  1  0  0  0  0
 32 33  2  0  0  0  0
 33 38  1  0  0  0  0
 33 34  1  0  0  0  0
 34 35  2  0  0  0  0
 35 36  1  0  0  0  0
 36 37  2  0  0  0  0
 37 38  1  0  0  0  0
M  END
> <NMREDATA_VERSION>
1.1

> <NMREDATA_LEVEL>
0

> <NMREDATA_SOLVENT>
CDCl3

> <NMREDATA_FORMULA>
C29H20F3O4PS

> <NMREDATA_SMILES>
O=S(=O)(C(F)(F)F)Oc1ccc2c(c1c1ccccc1P(=O)(c1ccccc1)c1ccccc1)cccc2

> <NMREDATA_ASSIGNMENT>
P2, 27.31, 2

> <NMREDATA_1D_31P>
Larmor=162
27.31, L=P2

$$$$
