
 OpenBabel06112616462D

 22 24  0  0  0  0  0  0  0  0999 V2000
    2.5196   -1.3267    0.0000 C   0  0  0  0  0  0  0  0  0  0  0  0
    2.2608   -0.3607    0.0000 C   0  0  0  0  0  0  0  0  0  0  0  0
    1.2949   -0.1019    0.0000 O   0  0  0  0  0  0  0  0  0  0  0  0
    0.5878   -0.8090    0.0000 P   0  0  3  0  0  0  0  0  0  0  0  0
    1.1401   -1.6427    0.0000 O   0  0  0  0  0  0  0  0  0  0  0  0
    0.0000   -1.6180    0.0000 O   0  0  0  0  0  0  0  0  0  0  0  0
   -0.9511   -1.3090    0.0000 C   0  0  0  0  0  0  0  0  0  0  0  0
   -1.8171   -1.8090    0.0000 C   0  0  0  0  0  0  0  0  0  0  0  0
   -2.6831   -1.3090    0.0000 C   0  0  0  0  0  0  0  0  0  0  0  0
   -3.5491   -1.8090    0.0000 C   0  0  0  0  0  0  0  0  0  0  0  0
   -3.5491   -2.8090    0.0000 C   0  0  0  0  0  0  0  0  0  0  0  0
   -4.4152   -3.3090    0.0000 C   0  0  0  0  0  0  0  0  0  0  0  0
   -5.2812   -2.8090    0.0000 C   0  0  0  0  0  0  0  0  0  0  0  0
   -5.2812   -1.8090    0.0000 C   0  0  0  0  0  0  0  0  0  0  0  0
   -6.1472   -1.3090    0.0000 C   0  0  0  0  0  0  0  0  0  0  0  0
   -4.4152   -1.3090    0.0000 C   0  0  0  0  0  0  0  0  0  0  0  0
   -2.6831   -0.3090    0.0000 C   0  0  0  0  0  0  0  0  0  0  0  0
   -1.8171    0.1910    0.0000 C   0  0  0  0  0  0  0  0  0  0  0  0
   -0.9511   -0.3090    0.0000 C   0  0  0  0  0  0  0  0  0  0  0  0
    0.0000    0.0000    0.0000 C   0  0  0  0  0  0  0  0  0  0  0  0
    0.7431    0.6691    0.0000 C   0  0  0  0  0  0  0  0  0  0  0  0
   -0.2079    0.9781    0.0000 C   0  0  0  0  0  0  0  0  0  0  0  0
  1  2  1  0  0  0  0
  2  3  1  0  0  0  0
  3  4  1  0  0  0  0
  4 20  1  0  0  0  0
  4  5  2  0  0  0  0
  4  6  1  0  0  0  0
  6  7  1  0  0  0  0
  7 19  2  0  0  0  0
  7  8  1  0  0  0  0
  8  9  2  0  0  0  0
  9 10  1  0  0  0  0
  9 17  1  0  0  0  0
 10 16  2  0  0  0  0
 10 11  1  0  0  0  0
 11 12  2  0  0  0  0
 12 13  1  0  0  0  0
 13 14  2  0  0  0  0
 14 15  1  0  0  0  0
 14 16  1  0  0  0  0
 17 18  2  0  0  0  0
 18 19  1  0  0  0  0
 19 20  1  0  0  0  0
 20 21  1  0  0  0  0
 20 22  1  0  0  0  0
M  END
> <NMREDATA_VERSION>
1.1

> <NMREDATA_LEVEL>
0

> <NMREDATA_SOLVENT>
CDCl3

> <NMREDATA_FORMULA>
C18H21O3P

> <NMREDATA_SMILES>
CCOP1(=O)Oc2c(C1(C)C)ccc(c2)c1cccc(c1)C

> <NMREDATA_ASSIGNMENT>
P4, 51.40, 4

> <NMREDATA_1D_31P>
Larmor=161
51.40, L=P4

$$$$
