
 OpenBabel06112616452D

 35 36  0  0  0  0  0  0  0  0999 V2000
    0.4483   -1.6730    0.0000 N   0  3  0  0  0  0  0  0  0  0  0  0
   -0.2588   -0.9659    0.0000 C   0  0  0  0  0  0  0  0  0  0  0  0
   -1.2247   -1.2247    0.0000 C   0  0  0  0  0  0  0  0  0  0  0  0
   -1.9319   -0.5176    0.0000 C   0  0  0  0  0  0  0  0  0  0  0  0
   -1.6730    0.4483    0.0000 C   0  0  0  0  0  0  0  0  0  0  0  0
   -2.3801    1.1554    0.0000 C   0  0  0  0  0  0  0  0  0  0  0  0
   -2.1213    2.1213    0.0000 C   0  0  0  0  0  0  0  0  0  0  0  0
   -2.8284    2.8284    0.0000 S   0  0  0  0  0  0  0  0  0  0  0  0
   -3.7944    2.5696    0.0000 S   0  0  0  0  0  0  0  0  0  0  0  0
   -4.5015    3.2767    0.0000 C   0  0  0  0  0  0  0  0  0  0  0  0
   -5.4674    3.0179    0.0000 C   0  0  0  0  0  0  0  0  0  0  0  0
   -6.1745    3.7250    0.0000 C   0  0  0  0  0  0  0  0  0  0  0  0
   -7.1404    3.4662    0.0000 C   0  0  0  0  0  0  0  0  0  0  0  0
   -7.8475    4.1733    0.0000 C   0  0  0  0  0  0  0  0  0  0  0  0
   -8.8135    3.9145    0.0000 C   0  0  0  0  0  0  0  0  0  0  0  0
   -9.5206    4.6216    0.0000 C   0  0  0  0  0  0  0  0  0  0  0  0
  -10.4865    4.3628    0.0000 C   0  0  0  0  0  0  0  0  0  0  0  0
  -11.1936    5.0699    0.0000 C   0  0  0  0  0  0  0  0  0  0  0  0
  -12.1595    4.8110    0.0000 C   0  0  0  0  0  0  0  0  0  0  0  0
  -12.8666    5.5182    0.0000 C   0  0  0  0  0  0  0  0  0  0  0  0
  -13.8325    5.2593    0.0000 C   0  0  0  0  0  0  0  0  0  0  0  0
   -3.3461    0.8966    0.0000 O   0  0  0  0  0  0  0  0  0  0  0  0
   -3.6049   -0.0694    0.0000 P   0  0  0  0  0  0  0  0  0  0  0  0
   -2.8115   -0.6781    0.0000 S   0  0  0  0  0  0  0  0  0  0  0  0
   -3.6049   -1.0694    0.0000 O   0  0  0  0  0  0  0  0  0  0  0  0
   -4.4709   -1.5694    0.0000 C   0  0  0  0  0  0  0  0  0  0  0  0
   -5.3369   -1.0694    0.0000 C   0  0  0  0  0  0  0  0  0  0  0  0
   -6.3369   -1.0694    0.0000 C   0  0  0  0  0  0  0  0  0  0  0  0
   -5.8369   -1.9354    0.0000 C   0  0  0  0  0  0  0  0  0  0  0  0
   -5.3369   -0.0694    0.0000 C   0  0  0  0  0  0  0  0  0  0  0  0
   -4.4709    0.4306    0.0000 O   0  0  0  0  0  0  0  0  0  0  0  0
   -0.7071    0.7071    0.0000 C   0  0  0  0  0  0  0  0  0  0  0  0
    0.0000    0.0000    0.0000 C   0  0  0  0  0  0  0  0  0  0  0  0
    0.1895   -2.6390    0.0000 O   0  0  0  0  0  0  0  0  0  0  0  0
    1.4142   -1.4142    0.0000 O   0  5  0  0  0  0  0  0  0  0  0  0
  1  2  1  0  0  0  0
  1 34  2  0  0  0  0
  1 35  1  0  0  0  0
  2 33  2  0  0  0  0
  2  3  1  0  0  0  0
  3  4  2  0  0  0  0
  4  5  1  0  0  0  0
  5  6  1  0  0  0  0
  5 32  2  0  0  0  0
  6  7  2  0  0  0  0
  6 22  1  0  0  0  0
  7  8  1  0  0  0  0
  8  9  1  0  0  0  0
  9 10  1  0  0  0  0
 10 11  1  0  0  0  0
 11 12  1  0  0  0  0
 12 13  1  0  0  0  0
 13 14  1  0  0  0  0
 14 15  1  0  0  0  0
 15 16  1  0  0  0  0
 16 17  1  0  0  0  0
 17 18  1  0  0  0  0
 18 19  1  0  0  0  0
 19 20  1  0  0  0  0
 20 21  1  0  0  0  0
 22 23  1  0  0  0  0
 23 31  1  0  0  0  0
 23 24  2  0  0  0  0
 23 25  1  0  0  0  0
 25 26  1  0  0  0  0
 26 27  1  0  0  0  0
 27 28  1  0  0  0  0
 27 29  1  0  0  0  0
 27 30  1  0  0  0  0
 30 31  1  0  0  0  0
 32 33  1  0  0  0  0
M  END
> <NMREDATA_VERSION>
1.1

> <NMREDATA_LEVEL>
0

> <NMREDATA_SOLVENT>
CDCl3

> <NMREDATA_FORMULA>
C25H40NO5PS3

> <NMREDATA_SMILES>
CCCCCCCCCCCCSS/C=C(/c1ccc(cc1)[N+](=O)[O-])\OP1(=S)OCC(CO1)(C)C

> <NMREDATA_ASSIGNMENT>
P23, 56.01, 23

> <NMREDATA_1D_31P>
Larmor=162
56.01, L=P23

$$$$
