
 OpenBabel06112616472D

 23 25  0  0  1  0  0  0  0  0999 V2000
    1.0904   -1.4423    0.0000 C    0  0  0  0  0  0  0  0  0  0  0  0
    1.9231   -0.9615    0.0000 O    0  0  0  0  0  0  0  0  0  0  0  0
    1.9231    0.0000    0.0000 P    0  0  0  0  0  0  0  0  0  0  0  0
    2.8846    0.0000    0.0000 O    0  0  0  0  0  0  0  0  0  0  0  0
    1.9231    0.9615    0.0000 O    0  0  0  0  0  0  0  0  0  0  0  0
    2.7558    1.4423    0.0000 C    0  0  0  0  0  0  0  0  0  0  0  0
    0.0000    0.0000    0.0000 C    0  0  3  0  0  0  0  0  0  0  0  0
   -0.4172   -0.8663    0.0000 N    0  0  0  0  0  0  0  0  0  0  0  0
   -1.3546   -1.0803    0.0000 C    0  0  0  0  0  0  0  0  0  0  0  0
   -1.4979   -2.0311    0.0000 C    0  0  0  0  0  0  0  0  0  0  0  0
   -2.3930   -2.3824    0.0000 C    0  0  0  0  0  0  0  0  0  0  0  0
   -3.1448   -1.7829    0.0000 C    0  0  0  0  0  0  0  0  0  0  0  0
   -3.0015   -0.8321    0.0000 C    0  0  0  0  0  0  0  0  0  0  0  0
   -2.1064   -0.4808    0.0000 C    0  0  0  0  0  0  0  0  0  0  0  0
   -2.1064    0.4808    0.0000 O    0  0  0  0  0  0  0  0  0  0  0  0
   -1.3546    1.0803    0.0000 C    0  0  0  0  0  0  0  0  0  0  0  0
   -1.6380    1.9991    0.0000 C    0  0  0  0  0  0  0  0  0  0  0  0
   -2.5755    2.2131    0.0000 Cl   0  0  0  0  0  0  0  0  0  0  0  0
   -0.9840    2.7040    0.0000 C    0  0  0  0  0  0  0  0  0  0  0  0
   -0.0466    2.4900    0.0000 C    0  0  0  0  0  0  0  0  0  0  0  0
    0.2368    1.5712    0.0000 C    0  0  0  0  0  0  0  0  0  0  0  0
    1.1742    1.3572    0.0000 Cl   0  0  0  0  0  0  0  0  0  0  0  0
   -0.4172    0.8663    0.0000 C    0  0  0  0  0  0  0  0  0  0  0  0
  1  2  1  0  0  0  0
  2  3  1  0  0  0  0
  3  4  2  0  0  0  0
  3  5  1  0  0  0  0
  3  7  1  0  0  0  0
  5  6  1  0  0  0  0
  7 23  1  0  0  0  0
  7  8  1  0  0  0  0
  8  9  1  0  0  0  0
  9 14  2  0  0  0  0
  9 10  1  0  0  0  0
 10 11  2  0  0  0  0
 11 12  1  0  0  0  0
 12 13  2  0  0  0  0
 13 14  1  0  0  0  0
 14 15  1  0  0  0  0
 15 16  1  0  0  0  0
 16 23  2  0  0  0  0
 16 17  1  0  0  0  0
 17 18  1  0  0  0  0
 17 19  2  0  0  0  0
 19 20  1  0  0  0  0
 20 21  2  0  0  0  0
 21 22  1  0  0  0  0
 21 23  1  0  0  0  0
M  END
> <NMREDATA_VERSION>
1.1

> <NMREDATA_LEVEL>
0

> <NMREDATA_SOLVENT>
CDCl3

> <NMREDATA_FORMULA>
C15H14Cl2NO4P

> <NMREDATA_SMILES>
COP(=O)(C1Nc2ccccc2Oc2c1c(Cl)ccc2Cl)OC

> <NMREDATA_ASSIGNMENT>
P3, 22.70, 3

> <NMREDATA_1D_31P>
Larmor=162
22.70, L=P3

$$$$
