
 OpenBabel06112616482D

 27 29  0  0  0  0  0  0  0  0999 V2000
    2.6375   -0.9654    0.0000 C    0  0  0  0  0  0  0  0  0  0  0  0
    1.8015   -1.4481    0.0000 C    0  0  0  0  0  0  0  0  0  0  0  0
    0.9654   -0.9654    0.0000 O    0  0  0  0  0  0  0  0  0  0  0  0
    0.9654    0.0000    0.0000 P    0  0  0  0  0  0  0  0  0  0  0  0
    1.9308    0.0000    0.0000 O    0  0  0  0  0  0  0  0  0  0  0  0
    0.9654    0.9654    0.0000 C    0  0  0  0  0  0  0  0  0  0  0  0
    1.8015    1.4481    0.0000 C    0  0  0  0  0  0  0  0  0  0  0  0
    1.8015    2.4135    0.0000 C    0  0  0  0  0  0  0  0  0  0  0  0
    2.7669    2.4135    0.0000 N    0  0  0  0  0  0  0  0  0  0  0  0
    3.2492    3.2498    0.0000 C    0  0  0  0  0  0  0  0  0  0  0  0
    2.7629    4.0872    0.0000 O    0  0  0  0  0  0  0  0  0  0  0  0
    4.2247    3.2544    0.0000 C    0  0  0  0  0  0  0  0  0  0  0  0
    4.7120    4.0935    0.0000 C    0  0  0  0  0  0  0  0  0  0  0  0
    5.6771    4.0922    0.0000 C    0  0  0  0  0  0  0  0  0  0  0  0
    6.1600    3.2551    0.0000 C    0  0  0  0  0  0  0  0  0  0  0  0
    5.6835    2.4094    0.0000 C    0  0  0  0  0  0  0  0  0  0  0  0
    6.1692    1.5673    0.0000 C    0  0  0  0  0  0  0  0  0  0  0  0
    7.1376    1.5605    0.0000 Br   0  0  0  0  0  0  0  0  0  0  0  0
    5.6690    0.7274    0.0000 C    0  0  0  0  0  0  0  0  0  0  0  0
    4.7065    0.7235    0.0000 C    0  0  0  0  0  0  0  0  0  0  0  0
    4.2207    1.5656    0.0000 C    0  0  0  0  0  0  0  0  0  0  0  0
    4.7075    2.4173    0.0000 C    0  0  0  0  0  0  0  0  0  0  0  0
    3.2497    1.5764    0.0000 C    0  0  0  0  0  0  0  0  0  0  0  0
    2.7607    0.7406    0.0000 O    0  0  0  0  0  0  0  0  0  0  0  0
    0.0000    0.0000    0.0000 O    0  0  0  0  0  0  0  0  0  0  0  0
   -0.4827    0.8361    0.0000 C    0  0  0  0  0  0  0  0  0  0  0  0
   -1.4481    0.8361    0.0000 C    0  0  0  0  0  0  0  0  0  0  0  0
  1  2  1  0  0  0  0
  2  3  1  0  0  0  0
  3  4  1  0  0  0  0
  4  5  2  0  0  0  0
  4  6  1  0  0  0  0
  4 25  1  0  0  0  0
  6  7  1  0  0  0  0
  7  8  1  0  0  0  0
  8  9  1  0  0  0  0
  9 23  1  0  0  0  0
  9 10  1  0  0  0  0
 10 11  2  0  0  0  0
 10 12  1  0  0  0  0
 12 22  2  0  0  0  0
 12 13  1  0  0  0  0
 13 14  2  0  0  0  0
 14 15  1  0  0  0  0
 15 16  2  0  0  0  0
 16 22  1  0  0  0  0
 16 17  1  0  0  0  0
 17 18  1  0  0  0  0
 17 19  2  0  0  0  0
 19 20  1  0  0  0  0
 20 21  2  0  0  0  0
 21 22  1  0  0  0  0
 21 23  1  0  0  0  0
 23 24  2  0  0  0  0
 25 26  1  0  0  0  0
 26 27  1  0  0  0  0
M  END
> <NMREDATA_VERSION>
1.1

> <NMREDATA_LEVEL>
0

> <NMREDATA_SOLVENT>
DMSO-d6

> <NMREDATA_FORMULA>
C19H21BrNO5P

> <NMREDATA_SMILES>
CCOP(=O)(OCC)CCCN1C(=O)c2cccc3c2c(C1=O)ccc3Br

> <NMREDATA_ASSIGNMENT>
P4, 32.03, 4

> <NMREDATA_1D_31P>
Larmor=283
32.03, L=P4

$$$$
