
 OpenBabel06112616482D

 37 42  0  0  0  0  0  0  0  0999 V2000
    0.7907    0.4565    0.0000 C   0  0  0  0  0  0  0  0  0  0  0  0
    1.5814    0.0000    0.0000 C   0  0  0  0  0  0  0  0  0  0  0  0
    1.5814   -0.9130    0.0000 C   0  0  0  0  0  0  0  0  0  0  0  0
    0.7907   -1.3696    0.0000 C   0  0  0  0  0  0  0  0  0  0  0  0
    0.7907   -2.2826    0.0000 P   0  0  0  0  0  0  0  0  0  0  0  0
    1.5814   -2.7391    0.0000 C   0  0  0  0  0  0  0  0  0  0  0  0
    1.5814   -3.6522    0.0000 C   0  0  0  0  0  0  0  0  0  0  0  0
    2.3722   -4.1087    0.0000 C   0  0  0  0  0  0  0  0  0  0  0  0
    3.1629   -3.6522    0.0000 C   0  0  0  0  0  0  0  0  0  0  0  0
    3.1629   -2.7391    0.0000 C   0  0  0  0  0  0  0  0  0  0  0  0
    2.3722   -2.2826    0.0000 C   0  0  0  0  0  0  0  0  0  0  0  0
   -2.3722   -4.1087    0.0000 C   0  0  0  0  0  0  0  0  0  0  0  0
   -3.1629   -3.6522    0.0000 C   0  0  0  0  0  0  0  0  0  0  0  0
   -3.1629   -1.8261    0.0000 N   0  0  0  0  0  0  0  0  0  0  0  0
   -2.4242   -1.2894    0.0000 C   0  0  0  0  0  0  0  0  0  0  0  0
   -1.5559   -1.5716    0.0000 C   0  0  0  0  0  0  0  0  0  0  0  0
   -0.8773   -0.9606    0.0000 C   0  0  0  0  0  0  0  0  0  0  0  0
   -1.3660   -2.4647    0.0000 C   0  0  0  0  0  0  0  0  0  0  0  0
   -2.7064   -0.4211    0.0000 C   0  0  0  0  0  0  0  0  0  0  0  0
   -3.6194   -0.4211    0.0000 C   0  0  0  0  0  0  0  0  0  0  0  0
   -3.9015   -1.2894    0.0000 C   0  0  0  0  0  0  0  0  0  0  0  0
   -4.7699   -1.5716    0.0000 C   0  0  0  0  0  0  0  0  0  0  0  0
   -5.4484   -0.9606    0.0000 C   0  0  0  0  0  0  0  0  0  0  0  0
   -6.3168   -1.2428    0.0000 C   0  0  0  0  0  0  0  0  0  0  0  0
   -6.5066   -2.1359    0.0000 C   0  0  0  0  0  0  0  0  0  0  0  0
   -7.3750   -2.4180    0.0000 C   0  0  0  0  0  0  0  0  0  0  0  0
   -8.0535   -1.8071    0.0000 C   0  0  0  0  0  0  0  0  0  0  0  0
   -7.8637   -0.9140    0.0000 C   0  0  0  0  0  0  0  0  0  0  0  0
   -6.9953   -0.6318    0.0000 C   0  0  0  0  0  0  0  0  0  0  0  0
   -5.8281   -2.7468    0.0000 C   0  0  0  0  0  0  0  0  0  0  0  0
   -4.9597   -2.4647    0.0000 C   0  0  0  0  0  0  0  0  0  0  0  0
   -3.9536   -4.1087    0.0000 C   0  0  0  0  0  0  0  0  0  0  0  0
   -3.9536   -5.0217    0.0000 C   0  0  0  0  0  0  0  0  0  0  0  0
   -3.1629   -5.4783    0.0000 C   0  0  0  0  0  0  0  0  0  0  0  0
   -2.3722   -5.0217    0.0000 C   0  0  0  0  0  0  0  0  0  0  0  0
    0.0000   -0.9130    0.0000 C   0  0  0  0  0  0  0  0  0  0  0  0
    0.0000    0.0000    0.0000 C   0  0  0  0  0  0  0  0  0  0  0  0
  1 37  2  0  0  0  0
  1  2  1  0  0  0  0
  2  3  2  0  0  0  0
  3  4  1  0  0  0  0
  4  5  1  0  0  0  0
  4 36  2  0  0  0  0
  5  6  1  0  0  0  0
  5 12  1  0  0  0  0
  6 11  2  0  0  0  0
  6  7  1  0  0  0  0
  7  8  2  0  0  0  0
  8  9  1  0  0  0  0
  9 10  2  0  0  0  0
 10 11  1  0  0  0  0
 12 35  2  0  0  0  0
 12 13  1  0  0  0  0
 13 14  1  0  0  0  0
 13 32  2  0  0  0  0
 14 21  1  0  0  0  0
 14 15  1  0  0  0  0
 15 16  1  0  0  0  0
 15 19  2  0  0  0  0
 16 17  1  0  0  0  0
 16 18  1  0  0  0  0
 19 20  1  0  0  0  0
 20 21  2  0  0  0  0
 21 22  1  0  0  0  0
 22 31  2  0  0  0  0
 22 23  1  0  0  0  0
 23 24  2  0  0  0  0
 24 29  1  0  0  0  0
 24 25  1  0  0  0  0
 25 26  1  0  0  0  0
 25 30  2  0  0  0  0
 26 27  2  0  0  0  0
 27 28  1  0  0  0  0
 28 29  2  0  0  0  0
 30 31  1  0  0  0  0
 32 33  1  0  0  0  0
 33 34  2  0  0  0  0
 34 35  1  0  0  0  0
 36 37  1  0  0  0  0
M  END
> <NMREDATA_VERSION>
1.1

> <NMREDATA_LEVEL>
0

> <NMREDATA_SOLVENT>
CDCl3

> <NMREDATA_FORMULA>
C35H30NP

> <NMREDATA_SMILES>
CC(c1ccc(n1c1ccccc1P(c1ccccc1)c1ccccc1)c1ccc2c(c1)cccc2)C

> <NMREDATA_ASSIGNMENT>
P5, -20.10, 5

> <NMREDATA_1D_31P>
Larmor=243
-20.10, L=P5

$$$$
