
 OpenBabel06112616482D

 23 24  0  0  0  0  0  0  0  0999 V2000
   -0.9600    0.7028    0.0000 C   0  0  0  0  0  0  0  0  0  0  0  0
   -1.4400   -0.1286    0.0000 C   0  0  0  0  0  0  0  0  0  0  0  0
   -3.3600   -0.1286    0.0000 C   0  0  0  0  0  0  0  0  0  0  0  0
   -0.9600   -0.9600    0.0000 O   0  0  0  0  0  0  0  0  0  0  0  0
    0.0000   -0.9600    0.0000 P   0  0  0  0  0  0  0  0  0  0  0  0
    0.0000   -1.9200    0.0000 C   0  0  0  0  0  0  0  0  0  0  0  0
    0.8314   -2.4000    0.0000 C   0  0  0  0  0  0  0  0  0  0  0  0
    0.8314   -3.3600    0.0000 C   0  0  0  0  0  0  0  0  0  0  0  0
    1.6628   -3.8400    0.0000 C   0  0  0  0  0  0  0  0  0  0  0  0
    0.0000   -3.8400    0.0000 C   0  0  0  0  0  0  0  0  0  0  0  0
   -0.8314   -3.3600    0.0000 C   0  0  0  0  0  0  0  0  0  0  0  0
   -0.8314   -2.4000    0.0000 C   0  0  0  0  0  0  0  0  0  0  0  0
   -1.6628   -1.9200    0.0000 C   0  0  0  0  0  0  0  0  0  0  0  0
   -2.4942   -2.4000    0.0000 N   0  0  0  0  0  0  0  0  0  0  0  0
   -3.3255   -1.9200    0.0000 C   0  0  0  0  0  0  0  0  0  0  0  0
   -3.3255   -0.9600    0.0000 C   0  0  0  0  0  0  0  0  0  0  0  0
   -2.4942   -0.4800    0.0000 C   0  0  0  0  0  0  0  0  0  0  0  0
   -1.6628   -0.9600    0.0000 N   0  0  0  0  0  0  0  0  0  0  0  0
    0.9600   -0.9600    0.0000 O   0  0  0  0  0  0  0  0  0  0  0  0
    1.4400   -0.1286    0.0000 C   0  0  0  0  0  0  0  0  0  0  0  0
    0.9600    0.7028    0.0000 C   0  0  0  0  0  0  0  0  0  0  0  0
    2.4000   -0.1286    0.0000 C   0  0  0  0  0  0  0  0  0  0  0  0
    0.0000    0.0000    0.0000 O   0  0  0  0  0  0  0  0  0  0  0  0
  1  2  1  0  0  0  0
  2  3  1  0  0  0  0
  2  4  1  0  0  0  0
  4  5  1  0  0  0  0
  5  6  1  0  0  0  0
  5 19  1  0  0  0  0
  5 23  2  0  0  0  0
  6 12  2  0  0  0  0
  6  7  1  0  0  0  0
  7  8  2  0  0  0  0
  8  9  1  0  0  0  0
  8 10  1  0  0  0  0
 10 11  2  0  0  0  0
 11 12  1  0  0  0  0
 12 13  1  0  0  0  0
 13 18  2  0  0  0  0
 13 14  1  0  0  0  0
 14 15  2  0  0  0  0
 15 16  1  0  0  0  0
 16 17  2  0  0  0  0
 17 18  1  0  0  0  0
 19 20  1  0  0  0  0
 20 21  1  0  0  0  0
 20 22  1  0  0  0  0
M  END
> <NMREDATA_VERSION>
1.1

> <NMREDATA_LEVEL>
0

> <NMREDATA_SOLVENT>
CDCl3

> <NMREDATA_FORMULA>
C17H23N2O3P

> <NMREDATA_SMILES>
CC(OP(=O)(c1cc(C)ccc1c1ncccn1)OC(C)C)C

> <NMREDATA_ASSIGNMENT>
P5, 16.33, 5

> <NMREDATA_1D_31P>
Larmor=162
16.33, L=P5

$$$$
