
 OpenBabel06112616442D

 30 33  0  0  0  0  0  0  0  0999 V2000
    4.8529    2.3916    0.0000 O   0  0  0  0  0  0  0  0  0  0  0  0
    4.3676    1.5511    0.0000 C   0  0  0  0  0  0  0  0  0  0  0  0
    4.8529    0.7105    0.0000 C   0  0  0  0  0  0  0  0  0  0  0  0
    4.3676   -0.1300    0.0000 C   0  0  0  0  0  0  0  0  0  0  0  0
    3.3971   -0.1300    0.0000 C   0  0  0  0  0  0  0  0  0  0  0  0
    2.9118    0.7105    0.0000 C   0  0  0  0  0  0  0  0  0  0  0  0
    1.9412    0.7105    0.0000 C   0  0  0  0  0  0  0  0  0  0  0  0
    1.4559    1.5511    0.0000 O   0  0  0  0  0  0  0  0  0  0  0  0
    0.9706   -0.9706    0.0000 N   0  0  0  0  0  0  0  0  0  0  0  0
    0.0000   -0.9706    0.0000 P   0  0  0  0  0  0  0  0  0  0  0  0
    0.0000   -1.9412    0.0000 C   0  0  0  0  0  0  0  0  0  0  0  0
   -0.8406   -2.4265    0.0000 C   0  0  0  0  0  0  0  0  0  0  0  0
   -0.8406   -3.3971    0.0000 C   0  0  0  0  0  0  0  0  0  0  0  0
    0.0000   -3.8824    0.0000 C   0  0  0  0  0  0  0  0  0  0  0  0
    0.8406   -3.3971    0.0000 C   0  0  0  0  0  0  0  0  0  0  0  0
    0.8406   -2.4265    0.0000 C   0  0  0  0  0  0  0  0  0  0  0  0
   -0.9706   -0.9706    0.0000 C   0  0  0  0  0  0  0  0  0  0  0  0
   -1.4559   -0.1300    0.0000 C   0  0  0  0  0  0  0  0  0  0  0  0
   -2.4265   -0.1300    0.0000 C   0  0  0  0  0  0  0  0  0  0  0  0
   -2.9118   -0.9706    0.0000 C   0  0  0  0  0  0  0  0  0  0  0  0
   -2.4265   -1.8111    0.0000 C   0  0  0  0  0  0  0  0  0  0  0  0
   -1.4559   -1.8111    0.0000 C   0  0  0  0  0  0  0  0  0  0  0  0
    0.0000    0.0000    0.0000 C   0  0  0  0  0  0  0  0  0  0  0  0
    0.8406    0.4853    0.0000 C   0  0  0  0  0  0  0  0  0  0  0  0
    0.8406    1.4559    0.0000 C   0  0  0  0  0  0  0  0  0  0  0  0
    0.0000    1.9412    0.0000 C   0  0  0  0  0  0  0  0  0  0  0  0
   -0.8406    1.4559    0.0000 C   0  0  0  0  0  0  0  0  0  0  0  0
   -0.8406    0.4853    0.0000 C   0  0  0  0  0  0  0  0  0  0  0  0
    3.3971    1.5511    0.0000 C   0  0  0  0  0  0  0  0  0  0  0  0
    5.8235    2.3916    0.0000 C   0  0  0  0  0  0  0  0  0  0  0  0
  1  2  1  0  0  0  0
  1 30  1  0  0  0  0
  2 29  2  0  0  0  0
  2  3  1  0  0  0  0
  3  4  2  0  0  0  0
  4  5  1  0  0  0  0
  5  6  2  0  0  0  0
  6  7  1  0  0  0  0
  6 29  1  0  0  0  0
  7  8  2  0  0  0  0
  7  9  1  0  0  0  0
  9 10  2  0  0  0  0
 10 11  1  0  0  0  0
 10 17  1  0  0  0  0
 10 23  1  0  0  0  0
 11 16  2  0  0  0  0
 11 12  1  0  0  0  0
 12 13  2  0  0  0  0
 13 14  1  0  0  0  0
 14 15  2  0  0  0  0
 15 16  1  0  0  0  0
 17 22  2  0  0  0  0
 17 18  1  0  0  0  0
 18 19  2  0  0  0  0
 19 20  1  0  0  0  0
 20 21  2  0  0  0  0
 21 22  1  0  0  0  0
 23 28  2  0  0  0  0
 23 24  1  0  0  0  0
 24 25  2  0  0  0  0
 25 26  1  0  0  0  0
 26 27  2  0  0  0  0
 27 28  1  0  0  0  0
M  END
> <NMREDATA_VERSION>
1.1

> <NMREDATA_LEVEL>
0

> <NMREDATA_SOLVENT>
CDCl3

> <NMREDATA_FORMULA>
C26H22NO2P

> <NMREDATA_SMILES>
COc1cccc(c1)C(=O)N=P(c1ccccc1)(c1ccccc1)c1ccccc1

> <NMREDATA_ASSIGNMENT>
P10, 20.59, 10

> <NMREDATA_1D_31P>
Larmor=202
20.59, L=P10

$$$$
