
 OpenBabel06112616432D

 34 38  0  0  1  0  0  0  0  0999 V2000
    2.5214   -0.1861    0.0000 N   0  0  0  0  0  0  0  0  0  0  0  0
    2.2203    0.7406    0.0000 C   0  0  0  0  0  0  0  0  0  0  0  0
    1.2673    0.9432    0.0000 O   0  0  0  0  0  0  0  0  0  0  0  0
    2.8723    1.4647    0.0000 O   0  0  0  0  0  0  0  0  0  0  0  0
    2.5712    2.3913    0.0000 C   0  0  0  0  0  0  0  0  0  0  0  0
    2.7738    3.3444    0.0000 C   0  0  0  0  0  0  0  0  0  0  0  0
    3.4979    2.6924    0.0000 C   0  0  0  0  0  0  0  0  0  0  0  0
    1.6182    2.5939    0.0000 C   0  0  0  0  0  0  0  0  0  0  0  0
    3.4481   -0.4872    0.0000 C   0  0  0  0  0  0  0  0  0  0  0  0
    4.2919    0.0000    0.0000 C   0  0  0  0  0  0  0  0  0  0  0  0
    5.1357   -0.4872    0.0000 C   0  0  0  0  0  0  0  0  0  0  0  0
    5.1357   -1.4615    0.0000 C   0  0  0  0  0  0  0  0  0  0  0  0
    4.2919   -1.9487    0.0000 C   0  0  0  0  0  0  0  0  0  0  0  0
    3.4481   -1.4615    0.0000 C   0  0  0  0  0  0  0  0  0  0  0  0
    2.5214   -1.7626    0.0000 C   0  0  1  0  0  0  0  0  0  0  0  0
    3.0941   -2.5509    0.0000 C   0  0  0  0  0  0  0  0  0  0  0  0
    2.5214   -3.3392    0.0000 C   0  0  0  0  0  0  0  0  0  0  0  0
    1.5948   -3.0381    0.0000 C   0  0  0  0  0  0  0  0  0  0  0  0
    1.5948   -2.0637    0.0000 O   0  0  0  0  0  0  0  0  0  0  0  0
    1.9487   -0.9744    0.0000 C   0  0  1  0  0  0  0  0  0  0  0  0
    0.0000   -0.9744    0.0000 P   0  0  0  0  0  0  0  0  0  0  0  0
    0.0000   -1.9487    0.0000 O   0  0  0  0  0  0  0  0  0  0  0  0
   -0.9744   -0.9744    0.0000 C   0  0  0  0  0  0  0  0  0  0  0  0
   -1.4615   -0.1305    0.0000 C   0  0  0  0  0  0  0  0  0  0  0  0
   -2.4359   -0.1305    0.0000 C   0  0  0  0  0  0  0  0  0  0  0  0
   -2.9231   -0.9744    0.0000 C   0  0  0  0  0  0  0  0  0  0  0  0
   -2.4359   -1.8182    0.0000 C   0  0  0  0  0  0  0  0  0  0  0  0
   -1.4615   -1.8182    0.0000 C   0  0  0  0  0  0  0  0  0  0  0  0
    0.0000    0.0000    0.0000 C   0  0  0  0  0  0  0  0  0  0  0  0
    0.8438    0.4872    0.0000 C   0  0  0  0  0  0  0  0  0  0  0  0
    0.8438    1.4615    0.0000 C   0  0  0  0  0  0  0  0  0  0  0  0
    0.0000    1.9487    0.0000 C   0  0  0  0  0  0  0  0  0  0  0  0
   -0.8438    1.4615    0.0000 C   0  0  0  0  0  0  0  0  0  0  0  0
   -0.8438    0.4872    0.0000 C   0  0  0  0  0  0  0  0  0  0  0  0
  1 20  1  0  0  0  0
  1  2  1  0  0  0  0
  1  9  1  0  0  0  0
  2  3  2  0  0  0  0
  2  4  1  0  0  0  0
  4  5  1  0  0  0  0
  5  6  1  0  0  0  0
  5  7  1  0  0  0  0
  5  8  1  0  0  0  0
  9 14  2  0  0  0  0
  9 10  1  0  0  0  0
 10 11  2  0  0  0  0
 11 12  1  0  0  0  0
 12 13  2  0  0  0  0
 13 14  1  0  0  0  0
 14 15  1  0  0  0  0
 15 19  1  0  0  0  0
 15 16  1  6  0  0  0
 15 20  1  0  0  0  0
 16 17  1  0  0  0  0
 17 18  1  0  0  0  0
 18 19  1  0  0  0  0
 20 21  1  1  0  0  0
 21 22  2  0  0  0  0
 21 23  1  0  0  0  0
 21 29  1  0  0  0  0
 23 28  2  0  0  0  0
 23 24  1  0  0  0  0
 24 25  2  0  0  0  0
 25 26  1  0  0  0  0
 26 27  2  0  0  0  0
 27 28  1  0  0  0  0
 29 34  2  0  0  0  0
 29 30  1  0  0  0  0
 30 31  2  0  0  0  0
 31 32  1  0  0  0  0
 32 33  2  0  0  0  0
 33 34  1  0  0  0  0
M  END
> <NMREDATA_VERSION>
1.1

> <NMREDATA_LEVEL>
0

> <NMREDATA_SOLVENT>
DMSO-d6

> <NMREDATA_FORMULA>
C28H30NO4P

> <NMREDATA_SMILES>
O=C(N1c2ccccc2[C@@]2([C@H]1P(=O)(c1ccccc1)c1ccccc1)CCCO2)OC(C)(C)C

> <NMREDATA_ASSIGNMENT>
P21, 26.60, 21

> <NMREDATA_1D_31P>
Larmor=162
26.60, L=P21

$$$$
