
 OpenBabel06112616452D

 36 37  0  0  1  0  0  0  0  0999 V2000
   -6.5000    1.5981    0.0000 C   0  0  0  0  0  0  0  0  0  0  0  0
   -7.0000    0.7321    0.0000 C   0  0  0  0  0  0  0  0  0  0  0  0
   -6.5000   -0.1340    0.0000 O   0  0  0  0  0  0  0  0  0  0  0  0
   -5.5000   -0.1340    0.0000 C   0  0  0  0  0  0  0  0  0  0  0  0
   -5.0000   -1.0000    0.0000 O   0  0  0  0  0  0  0  0  0  0  0  0
   -5.0000    0.7321    0.0000 C   0  0  0  0  0  0  0  0  0  0  0  0
   -4.0000    0.7321    0.0000 C   0  0  0  0  0  0  0  0  0  0  0  0
   -3.5000   -0.1340    0.0000 C   0  0  0  0  0  0  0  0  0  0  0  0
   -2.5000   -0.1340    0.0000 C   0  0  2  0  0  0  0  0  0  0  0  0
   -2.5000    0.8660    0.0000 N   0  3  0  0  0  0  0  0  0  0  0  0
   -3.3660    1.3660    0.0000 O   0  0  0  0  0  0  0  0  0  0  0  0
   -1.6340    1.3660    0.0000 O   0  5  0  0  0  0  0  0  0  0  0  0
   -1.5000   -0.1340    0.0000 C   0  0  0  0  0  0  0  0  0  0  0  0
   -1.0000   -1.0000    0.0000 C   0  0  0  0  0  0  0  0  0  0  0  0
    0.0000   -1.0000    0.0000 S   0  0  0  0  0  0  0  0  0  0  0  0
    0.0000   -2.0000    0.0000 O   0  0  0  0  0  0  0  0  0  0  0  0
    1.0000   -1.0000    0.0000 O   0  0  0  0  0  0  0  0  0  0  0  0
    0.0000    0.0000    0.0000 C   0  0  0  0  0  0  0  0  0  0  0  0
   -0.8090    0.5878    0.0000 N   0  0  0  0  0  0  0  0  0  0  0  0
   -0.5000    1.5388    0.0000 N   0  0  0  0  0  0  0  0  0  0  0  0
    0.5000    1.5388    0.0000 N   0  0  0  0  0  0  0  0  0  0  0  0
    0.8090    0.5878    0.0000 N   0  0  0  0  0  0  0  0  0  0  0  0
    1.7601    0.2788    0.0000 C   0  0  0  0  0  0  0  0  0  0  0  0
    2.5032    0.9479    0.0000 C   0  0  0  0  0  0  0  0  0  0  0  0
    3.4543    0.6389    0.0000 C   0  0  0  0  0  0  0  0  0  0  0  0
    3.6622   -0.3393    0.0000 C   0  0  0  0  0  0  0  0  0  0  0  0
    2.9190   -1.0084    0.0000 C   0  0  0  0  0  0  0  0  0  0  0  0
    1.9680   -0.6994    0.0000 C   0  0  0  0  0  0  0  0  0  0  0  0
   -2.5000   -1.1340    0.0000 P   0  0  0  0  0  0  0  0  0  0  0  0
   -3.5000   -1.1340    0.0000 O   0  0  0  0  0  0  0  0  0  0  0  0
   -4.0000   -0.2679    0.0000 C   0  0  0  0  0  0  0  0  0  0  0  0
   -5.0000   -0.2679    0.0000 C   0  0  0  0  0  0  0  0  0  0  0  0
   -2.5000   -2.1340    0.0000 O   0  0  0  0  0  0  0  0  0  0  0  0
   -3.3660   -2.6340    0.0000 C   0  0  0  0  0  0  0  0  0  0  0  0
   -4.2321   -2.1340    0.0000 C   0  0  0  0  0  0  0  0  0  0  0  0
   -1.5000   -1.1340    0.0000 O   0  0  0  0  0  0  0  0  0  0  0  0
  1  2  1  0  0  0  0
  2  3  1  0  0  0  0
  3  4  1  0  0  0  0
  4  5  2  0  0  0  0
  4  6  1  0  0  0  0
  6  7  1  0  0  0  0
  7  8  1  0  0  0  0
  9  8  1  6  0  0  0
  9 10  1  0  0  0  0
  9 13  1  0  0  0  0
  9 29  1  0  0  0  0
 10 11  2  0  0  0  0
 10 12  1  0  0  0  0
 13 14  1  0  0  0  0
 14 15  1  0  0  0  0
 15 16  2  0  0  0  0
 15 17  2  0  0  0  0
 15 18  1  0  0  0  0
 18 22  1  0  0  0  0
 18 19  2  0  0  0  0
 19 20  1  0  0  0  0
 20 21  2  0  0  0  0
 21 22  1  0  0  0  0
 22 23  1  0  0  0  0
 23 28  2  0  0  0  0
 23 24  1  0  0  0  0
 24 25  2  0  0  0  0
 25 26  1  0  0  0  0
 26 27  2  0  0  0  0
 27 28  1  0  0  0  0
 29 30  1  0  0  0  0
 29 33  1  0  0  0  0
 29 36  2  0  0  0  0
 30 31  1  0  0  0  0
 31 32  1  0  0  0  0
 33 34  1  0  0  0  0
 34 35  1  0  0  0  0
M  END
> <NMREDATA_VERSION>
1.1

> <NMREDATA_LEVEL>
0

> <NMREDATA_SOLVENT>
CDCl3

> <NMREDATA_FORMULA>
C20H30N5O9PS

> <NMREDATA_SMILES>
CCOP(=O)([C@@]([N+](=O)[O-])(CCS(=O)(=O)c1nnnn1c1ccccc1)CCCC(=O)OCC)OCC

> <NMREDATA_ASSIGNMENT>
P29, 14.23, 29

> <NMREDATA_1D_31P>
Larmor=162
14.23, L=P29

$$$$
