
 OpenBabel06112616432D

 30 33  0  0  0  0  0  0  0  0999 V2000
    2.5875    0.0500    0.0000 C   0  0  0  0  0  0  0  0  0  0  0  0
    1.6572    0.3522    0.0000 C   0  0  0  0  0  0  0  0  0  0  0  0
    0.9303   -0.3023    0.0000 O   0  0  0  0  0  0  0  0  0  0  0  0
    0.0000    0.0000    0.0000 P   0  0  0  0  0  0  0  0  0  0  0  0
    0.3023    0.9303    0.0000 O   0  0  0  0  0  0  0  0  0  0  0  0
   -0.3522    1.6572    0.0000 C   0  0  0  0  0  0  0  0  0  0  0  0
   -0.0500    2.5875    0.0000 C   0  0  0  0  0  0  0  0  0  0  0  0
    0.0000   -0.9781    0.0000 C   0  0  0  0  0  0  0  0  0  0  0  0
   -0.8471   -1.4673    0.0000 C   0  0  0  0  0  0  0  0  0  0  0  0
   -1.6942   -0.9782    0.0000 B   0  0  0  0  0  0  0  0  0  0  0  0
   -2.6670   -1.0805    0.0000 O   0  0  0  0  0  0  0  0  0  0  0  0
   -3.0648   -0.1869    0.0000 C   0  0  0  0  0  0  0  0  0  0  0  0
   -3.7918    0.4676    0.0000 C   0  0  0  0  0  0  0  0  0  0  0  0
   -3.9951   -0.4892    0.0000 C   0  0  0  0  0  0  0  0  0  0  0  0
   -2.3380    0.4676    0.0000 C   0  0  0  0  0  0  0  0  0  0  0  0
   -1.9401    1.3612    0.0000 C   0  0  0  0  0  0  0  0  0  0  0  0
   -2.9129    1.2589    0.0000 C   0  0  0  0  0  0  0  0  0  0  0  0
   -1.4908   -0.0214    0.0000 O   0  0  0  0  0  0  0  0  0  0  0  0
   -0.8471   -2.4460    0.0000 C   0  0  0  0  0  0  0  0  0  0  0  0
    0.0000   -2.9352    0.0000 C   0  0  0  0  0  0  0  0  0  0  0  0
    0.8476   -2.4460    0.0000 C   0  0  0  0  0  0  0  0  0  0  0  0
    0.8476   -1.4673    0.0000 C   0  0  0  0  0  0  0  0  0  0  0  0
    1.6946   -0.9781    0.0000 O   0  0  0  0  0  0  0  0  0  0  0  0
    2.5422   -1.4673    0.0000 C   0  0  0  0  0  0  0  0  0  0  0  0
    3.3898   -0.9781    0.0000 C   0  0  0  0  0  0  0  0  0  0  0  0
    4.2369   -1.4673    0.0000 C   0  0  0  0  0  0  0  0  0  0  0  0
    4.2369   -2.4460    0.0000 C   0  0  0  0  0  0  0  0  0  0  0  0
    3.3898   -2.9352    0.0000 C   0  0  0  0  0  0  0  0  0  0  0  0
    2.5422   -2.4460    0.0000 C   0  0  0  0  0  0  0  0  0  0  0  0
   -0.9303    0.3023    0.0000 O   0  0  0  0  0  0  0  0  0  0  0  0
  1  2  1  0  0  0  0
  2  3  1  0  0  0  0
  3  4  1  0  0  0  0
  4  5  1  0  0  0  0
  4  8  1  0  0  0  0
  4 30  2  0  0  0  0
  5  6  1  0  0  0  0
  6  7  1  0  0  0  0
  8 22  2  0  0  0  0
  8  9  1  0  0  0  0
  9 10  1  0  0  0  0
  9 19  2  0  0  0  0
 10 18  1  0  0  0  0
 10 11  1  0  0  0  0
 11 12  1  0  0  0  0
 12 13  1  0  0  0  0
 12 14  1  0  0  0  0
 12 15  1  0  0  0  0
 15 16  1  0  0  0  0
 15 17  1  0  0  0  0
 15 18  1  0  0  0  0
 19 20  1  0  0  0  0
 20 21  2  0  0  0  0
 21 29  1  0  0  0  0
 21 22  1  0  0  0  0
 22 23  1  0  0  0  0
 23 24  1  0  0  0  0
 24 29  2  0  0  0  0
 24 25  1  0  0  0  0
 25 26  2  0  0  0  0
 26 27  1  0  0  0  0
 27 28  2  0  0  0  0
 28 29  1  0  0  0  0
M  END
> <NMREDATA_VERSION>
1.1

> <NMREDATA_LEVEL>
0

> <NMREDATA_SOLVENT>
CDCl3

> <NMREDATA_FORMULA>
C22H28BO6P

> <NMREDATA_SMILES>
CCOP(=O)(c1c(ccc2c1oc1c2cccc1)B1OC(C(O1)(C)C)(C)C)OCC

> <NMREDATA_ASSIGNMENT>
P4, 16.60, 4

> <NMREDATA_1D_31P>
Larmor=162
16.60, L=P4

$$$$
