
 OpenBabel06112616432D

 45 51  0  0  0  0  0  0  0  0999 V2000
    1.1673    0.8957    0.0000 C   0  0  0  0  0  0  0  0  0  0  0  0
    2.0629    1.1357    0.0000 O   0  0  0  0  0  0  0  0  0  0  0  0
    0.5116    1.5514    0.0000 O   0  0  0  0  0  0  0  0  0  0  0  0
    0.9273    0.0000    0.0000 C   0  0  0  0  0  0  0  0  0  0  0  0
    1.8229    0.2400    0.0000 O   0  0  0  0  0  0  0  0  0  0  0  0
    2.3029    2.0313    0.0000 C   0  0  0  0  0  0  0  0  0  0  0  0
    1.6473    2.6870    0.0000 C   0  0  0  0  0  0  0  0  0  0  0  0
    1.8873    3.5827    0.0000 C   0  0  0  0  0  0  0  0  0  0  0  0
    2.7829    3.8227    0.0000 C   0  0  0  0  0  0  0  0  0  0  0  0
    3.0229    4.7184    0.0000 C   0  0  0  0  0  0  0  0  0  0  0  0
    3.9186    4.9584    0.0000 C   0  0  0  0  0  0  0  0  0  0  0  0
    4.5743    4.3027    0.0000 C   0  0  0  0  0  0  0  0  0  0  0  0
    4.3343    3.4070    0.0000 C   0  0  0  0  0  0  0  0  0  0  0  0
    3.4386    3.1670    0.0000 C   0  0  0  0  0  0  0  0  0  0  0  0
    3.1986    2.2713    0.0000 C   0  0  0  0  0  0  0  0  0  0  0  0
    3.8543    1.6157    0.0000 C   0  0  0  0  0  0  0  0  0  0  0  0
    3.6143    0.7200    0.0000 C   0  0  0  0  0  0  0  0  0  0  0  0
    2.7186    0.4800    0.0000 P   0  0  0  0  0  0  0  0  0  0  0  0
    0.0959    3.1027    0.0000 C   0  0  0  0  0  0  0  0  0  0  0  0
   -0.7998    2.8627    0.0000 C   0  0  0  0  0  0  0  0  0  0  0  0
   -1.4555    3.5184    0.0000 C   0  0  0  0  0  0  0  0  0  0  0  0
   -2.3511    3.2784    0.0000 C   0  0  0  0  0  0  0  0  0  0  0  0
   -1.2155    4.4141    0.0000 C   0  0  0  0  0  0  0  0  0  0  0  0
   -0.3198    4.6541    0.0000 C   0  0  0  0  0  0  0  0  0  0  0  0
   -0.0798    5.5497    0.0000 C   0  0  0  0  0  0  0  0  0  0  0  0
    0.3359    3.9984    0.0000 C   0  0  0  0  0  0  0  0  0  0  0  0
    2.4786   -0.4157    0.0000 C   0  0  0  0  0  0  0  0  0  0  0  0
    3.1343   -1.0714    0.0000 C   0  0  0  0  0  0  0  0  0  0  0  0
    2.8943   -1.9670    0.0000 C   0  0  0  0  0  0  0  0  0  0  0  0
    3.5500   -2.6227    0.0000 C   0  0  0  0  0  0  0  0  0  0  0  0
    1.9986   -2.2070    0.0000 C   0  0  0  0  0  0  0  0  0  0  0  0
    1.3430   -1.5514    0.0000 C   0  0  0  0  0  0  0  0  0  0  0  0
    0.4473   -1.7914    0.0000 C   0  0  0  0  0  0  0  0  0  0  0  0
    1.5830   -0.6557    0.0000 C   0  0  0  0  0  0  0  0  0  0  0  0
    4.2700    0.0643    0.0000 C   0  0  0  0  0  0  0  0  0  0  0  0
    5.1657    0.3043    0.0000 C   0  0  0  0  0  0  0  0  0  0  0  0
    5.4057    1.2000    0.0000 C   0  0  0  0  0  0  0  0  0  0  0  0
    6.3013    1.4400    0.0000 C   0  0  0  0  0  0  0  0  0  0  0  0
    6.5413    2.3357    0.0000 C   0  0  0  0  0  0  0  0  0  0  0  0
    5.8856    2.9913    0.0000 C   0  0  0  0  0  0  0  0  0  0  0  0
    4.9900    2.7513    0.0000 C   0  0  0  0  0  0  0  0  0  0  0  0
    4.7500    1.8557    0.0000 C   0  0  0  0  0  0  0  0  0  0  0  0
    0.0000    0.0000    0.0000 C   0  0  0  0  0  0  0  0  0  0  0  0
    0.0000   -0.9273    0.0000 C   0  0  0  0  0  0  0  0  0  0  0  0
    0.9273   -0.9273    0.0000 C   0  0  0  0  0  0  0  0  0  0  0  0
  1  2  2  0  0  0  0
  1  3  1  0  0  0  0
  1  4  1  0  0  0  0
  4 45  1  0  0  0  0
  4  5  1  0  0  0  0
  4 43  1  0  0  0  0
  5  6  1  0  0  0  0
  6 15  2  0  0  0  0
  6  7  1  0  0  0  0
  7  8  2  0  0  0  0
  8  9  1  0  0  0  0
  9 14  2  0  0  0  0
  9 10  1  0  0  0  0
 10 11  2  0  0  0  0
 11 12  1  0  0  0  0
 12 13  2  0  0  0  0
 13 14  1  0  0  0  0
 14 15  1  0  0  0  0
 15 16  1  0  0  0  0
 16 42  2  0  0  0  0
 16 17  1  0  0  0  0
 17 18  1  0  0  0  0
 17 35  2  0  0  0  0
 18 19  1  0  0  0  0
 18 27  1  0  0  0  0
 19 26  2  0  0  0  0
 19 20  1  0  0  0  0
 20 21  2  0  0  0  0
 21 22  1  0  0  0  0
 21 23  1  0  0  0  0
 23 24  2  0  0  0  0
 24 25  1  0  0  0  0
 24 26  1  0  0  0  0
 27 34  2  0  0  0  0
 27 28  1  0  0  0  0
 28 29  2  0  0  0  0
 29 30  1  0  0  0  0
 29 31  1  0  0  0  0
 31 32  2  0  0  0  0
 32 33  1  0  0  0  0
 32 34  1  0  0  0  0
 35 36  1  0  0  0  0
 36 37  2  0  0  0  0
 37 42  1  0  0  0  0
 37 38  1  0  0  0  0
 38 39  2  0  0  0  0
 39 40  1  0  0  0  0
 40 41  2  0  0  0  0
 41 42  1  0  0  0  0
 43 44  1  0  0  0  0
 44 45  1  0  0  0  0
M  END
> <NMREDATA_VERSION>
1.1

> <NMREDATA_LEVEL>
0

> <NMREDATA_SOLVENT>
CDCl3

> <NMREDATA_FORMULA>
C41H37O3P

> <NMREDATA_SMILES>
Cc1cc(C)cc(c1)P(c1ccc2c(c1c1c(ccc3c1cccc3)OC1(CCC1)C(=O)O)cccc2)c1cc(C)cc(c1)C

> <NMREDATA_ASSIGNMENT>
P18, -10.41, 18

> <NMREDATA_1D_31P>
Larmor=162
-10.41, L=P18

$$$$
