
 OpenBabel06112616442D

 43 48  0  0  1  0  0  0  0  0999 V2000
   -2.5804    3.3129    0.0000 O   0  0  0  0  0  0  0  0  0  0  0  0
   -2.5804    2.3334    0.0000 C   0  0  0  0  0  0  0  0  0  0  0  0
   -3.4288    1.8436    0.0000 C   0  0  0  0  0  0  0  0  0  0  0  0
   -3.4288    0.8640    0.0000 C   0  0  0  0  0  0  0  0  0  0  0  0
   -2.5804    0.3742    0.0000 C   0  0  0  0  0  0  0  0  0  0  0  0
   -1.7321    0.8640    0.0000 C   0  0  0  0  0  0  0  0  0  0  0  0
   -1.7321    1.8436    0.0000 C   0  0  0  0  0  0  0  0  0  0  0  0
   -0.8004    2.1463    0.0000 C   0  0  1  0  0  0  0  0  0  0  0  0
   -0.2246    1.3538    0.0000 O   0  0  0  0  0  0  0  0  0  0  0  0
   -0.8004    0.5613    0.0000 C   0  0  1  0  0  0  0  0  0  0  0  0
   -0.4977   -0.3704    0.0000 C   0  0  0  0  0  0  0  0  0  0  0  0
   -1.1532   -1.0984    0.0000 C   0  0  0  0  0  0  0  0  0  0  0  0
   -1.3762    2.9388    0.0000 O   0  0  0  0  0  0  0  0  0  0  0  0
   -0.8004    3.7313    0.0000 C   0  0  2  0  0  0  0  0  0  0  0  0
   -1.1031    4.6629    0.0000 C   0  0  0  0  0  0  0  0  0  0  0  0
   -2.0613    4.8666    0.0000 C   0  0  0  0  0  0  0  0  0  0  0  0
    0.1312    3.4286    0.0000 C   0  0  0  0  0  0  0  0  0  0  0  0
    0.9796    3.9184    0.0000 C   0  0  0  0  0  0  0  0  0  0  0  0
    1.8279    3.4286    0.0000 C   0  0  0  0  0  0  0  0  0  0  0  0
    1.8279    2.4490    0.0000 C   0  0  0  0  0  0  0  0  0  0  0  0
    0.9796    1.9592    0.0000 C   0  0  0  0  0  0  0  0  0  0  0  0
    0.9796    0.0000    0.0000 P   0  0  0  0  0  0  0  0  0  0  0  0
    1.9592    0.0000    0.0000 C   0  0  0  0  0  0  0  0  0  0  0  0
    2.4490   -0.8484    0.0000 C   0  0  0  0  0  0  0  0  0  0  0  0
    3.4286   -0.8484    0.0000 C   0  0  0  0  0  0  0  0  0  0  0  0
    3.9184    0.0000    0.0000 C   0  0  0  0  0  0  0  0  0  0  0  0
    3.4286    0.8484    0.0000 C   0  0  0  0  0  0  0  0  0  0  0  0
    2.4490    0.8484    0.0000 C   0  0  0  0  0  0  0  0  0  0  0  0
    0.9796   -0.9796    0.0000 C   0  0  0  0  0  0  0  0  0  0  0  0
    0.1312   -1.4694    0.0000 C   0  0  0  0  0  0  0  0  0  0  0  0
    0.1312   -2.4490    0.0000 C   0  0  0  0  0  0  0  0  0  0  0  0
    0.9796   -2.9388    0.0000 C   0  0  0  0  0  0  0  0  0  0  0  0
    1.8279   -2.4490    0.0000 C   0  0  0  0  0  0  0  0  0  0  0  0
    1.8279   -1.4694    0.0000 C   0  0  0  0  0  0  0  0  0  0  0  0
    0.0000    0.0000    0.0000 O   0  0  0  0  0  0  0  0  0  0  0  0
    0.1312    2.4490    0.0000 C   0  0  0  0  0  0  0  0  0  0  0  0
   -3.4288    3.8027    0.0000 S   0  0  0  0  0  0  0  0  0  0  0  0
   -2.9390    4.6511    0.0000 O   0  0  0  0  0  0  0  0  0  0  0  0
   -4.2771    4.2925    0.0000 O   0  0  0  0  0  0  0  0  0  0  0  0
   -3.9186    2.9544    0.0000 C   0  0  0  0  0  0  0  0  0  0  0  0
   -3.9186    1.9748    0.0000 F   0  0  0  0  0  0  0  0  0  0  0  0
   -3.0702    2.4646    0.0000 F   0  0  0  0  0  0  0  0  0  0  0  0
   -4.8981    2.9544    0.0000 F   0  0  0  0  0  0  0  0  0  0  0  0
  1  2  1  0  0  0  0
  1 37  1  0  0  0  0
  2  7  2  0  0  0  0
  2  3  1  0  0  0  0
  3  4  2  0  0  0  0
  4  5  1  0  0  0  0
  5  6  2  0  0  0  0
  6 10  1  0  0  0  0
  6  7  1  0  0  0  0
  8  7  1  1  0  0  0
  8 36  1  0  0  0  0
  8  9  1  0  0  0  0
  8 13  1  0  0  0  0
  9 10  1  0  0  0  0
 10 11  1  1  0  0  0
 11 12  1  0  0  0  0
 13 14  1  0  0  0  0
 14 15  1  6  0  0  0
 14 17  1  0  0  0  0
 15 16  1  0  0  0  0
 17 36  2  0  0  0  0
 17 18  1  0  0  0  0
 18 19  2  0  0  0  0
 19 20  1  0  0  0  0
 20 21  2  0  0  0  0
 21 22  1  0  0  0  0
 21 36  1  0  0  0  0
 22 23  1  0  0  0  0
 22 29  1  0  0  0  0
 22 35  2  0  0  0  0
 23 28  2  0  0  0  0
 23 24  1  0  0  0  0
 24 25  2  0  0  0  0
 25 26  1  0  0  0  0
 26 27  2  0  0  0  0
 27 28  1  0  0  0  0
 29 34  2  0  0  0  0
 29 30  1  0  0  0  0
 30 31  2  0  0  0  0
 31 32  1  0  0  0  0
 32 33  2  0  0  0  0
 33 34  1  0  0  0  0
 37 38  2  0  0  0  0
 37 39  2  0  0  0  0
 37 40  1  0  0  0  0
 40 41  1  0  0  0  0
 40 42  1  0  0  0  0
 40 43  1  0  0  0  0
M  END
> <NMREDATA_VERSION>
1.1

> <NMREDATA_LEVEL>
0

> <NMREDATA_SOLVENT>
CDCl3

> <NMREDATA_FORMULA>
C32H28F3O6PS

> <NMREDATA_SMILES>
CC[C@H]1O[C@]2(c3c1cccc3P(=O)(c1ccccc1)c1ccccc1)O[C@H](c1c2c(ccc1)OS(=O)(=O)C(F)(F)F)CC

> <NMREDATA_ASSIGNMENT>
P22, 29.90, 22

> <NMREDATA_1D_31P>
Larmor=162
29.90, L=P22

$$$$
