
 OpenBabel06112616442D

 63 67  0  0  1  0  0  0  0  0999 V2000
   10.5816   -4.9338    0.0000 C    0  0  0  0  0  0  0  0  0  0  0  0
    9.7283   -4.4412    0.0000 C    0  0  0  0  0  0  0  0  0  0  0  0
    8.7430   -4.4412    0.0000 C    0  0  0  0  0  0  0  0  0  0  0  0
    9.2356   -5.2945    0.0000 C    0  0  0  0  0  0  0  0  0  0  0  0
    9.7283   -3.4559    0.0000 Si   0  0  0  0  0  0  0  0  0  0  0  0
   10.7136   -3.4559    0.0000 C    0  0  0  0  0  0  0  0  0  0  0  0
   11.2062   -4.3092    0.0000 C    0  0  0  0  0  0  0  0  0  0  0  0
   12.1915   -4.3092    0.0000 C    0  0  0  0  0  0  0  0  0  0  0  0
   12.6842   -3.4559    0.0000 C    0  0  0  0  0  0  0  0  0  0  0  0
   12.1915   -2.6026    0.0000 C    0  0  0  0  0  0  0  0  0  0  0  0
   11.2062   -2.6026    0.0000 C    0  0  0  0  0  0  0  0  0  0  0  0
    9.7283   -2.4706    0.0000 C    0  0  0  0  0  0  0  0  0  0  0  0
   10.5816   -1.9779    0.0000 C    0  0  0  0  0  0  0  0  0  0  0  0
   10.5816   -0.9926    0.0000 C    0  0  0  0  0  0  0  0  0  0  0  0
    9.7283   -0.5000    0.0000 C    0  0  0  0  0  0  0  0  0  0  0  0
    8.8750   -0.9926    0.0000 C    0  0  0  0  0  0  0  0  0  0  0  0
    8.8750   -1.9779    0.0000 C    0  0  0  0  0  0  0  0  0  0  0  0
    8.7430   -3.4559    0.0000 O    0  0  0  0  0  0  0  0  0  0  0  0
    8.2503   -4.3092    0.0000 C    0  0  2  0  0  0  0  0  0  0  0  0
    7.2651   -4.3092    0.0000 C    0  0  2  0  0  0  0  0  0  0  0  0
    6.7724   -5.1625    0.0000 C    0  0  0  0  0  0  0  0  0  0  0  0
    7.2651   -6.0158    0.0000 P    0  3  0  0  0  0  0  0  0  0  0  0
    8.1183   -5.5231    0.0000 C    0  0  0  0  0  0  0  0  0  0  0  0
    9.8249   -6.5084    0.0000 C    0  0  0  0  0  0  0  0  0  0  0  0
   10.6782   -6.0158    0.0000 C    0  0  0  0  0  0  0  0  0  0  0  0
   11.5315   -6.5084    0.0000 C    0  0  0  0  0  0  0  0  0  0  0  0
   12.3848   -6.0158    0.0000 O    0  0  0  0  0  0  0  0  0  0  0  0
   13.2381   -6.5084    0.0000 C    0  0  0  0  0  0  0  0  0  0  0  0
   11.5315   -7.4937    0.0000 C    0  0  0  0  0  0  0  0  0  0  0  0
   12.3848   -7.9863    0.0000 O    0  0  0  0  0  0  0  0  0  0  0  0
   12.3848   -8.9716    0.0000 C    0  0  0  0  0  0  0  0  0  0  0  0
   10.6782   -7.9863    0.0000 C    0  0  0  0  0  0  0  0  0  0  0  0
   10.6782   -8.9716    0.0000 O    0  0  0  0  0  0  0  0  0  0  0  0
   11.5315   -9.4643    0.0000 C    0  0  0  0  0  0  0  0  0  0  0  0
    9.8249   -7.4937    0.0000 C    0  0  0  0  0  0  0  0  0  0  0  0
    7.7577   -6.8690    0.0000 C    0  0  0  0  0  0  0  0  0  0  0  0
    7.2651   -7.7223    0.0000 C    0  0  0  0  0  0  0  0  0  0  0  0
    7.7577   -8.5756    0.0000 C    0  0  0  0  0  0  0  0  0  0  0  0
    8.7430   -8.5756    0.0000 C    0  0  0  0  0  0  0  0  0  0  0  0
    9.2356   -7.7223    0.0000 C    0  0  0  0  0  0  0  0  0  0  0  0
    8.7430   -6.8690    0.0000 C    0  0  0  0  0  0  0  0  0  0  0  0
    6.4118   -6.5084    0.0000 C    0  0  0  0  0  0  0  0  0  0  0  0
    5.5585   -6.0158    0.0000 C    0  0  0  0  0  0  0  0  0  0  0  0
    4.7052   -6.5084    0.0000 C    0  0  0  0  0  0  0  0  0  0  0  0
    4.7052   -7.4937    0.0000 C    0  0  0  0  0  0  0  0  0  0  0  0
    5.5585   -7.9863    0.0000 C    0  0  0  0  0  0  0  0  0  0  0  0
    6.4118   -7.4937    0.0000 C    0  0  0  0  0  0  0  0  0  0  0  0
    6.7724   -3.4559    0.0000 N    0  0  0  0  0  0  0  0  0  0  0  0
    5.7871   -3.4559    0.0000 C    0  0  0  0  0  0  0  0  0  0  0  0
    5.2945   -4.3092    0.0000 N    0  0  0  0  0  0  0  0  0  0  0  0
    4.3092   -4.3092    0.0000 C    0  0  0  0  0  0  0  0  0  0  0  0
    3.8165   -5.1625    0.0000 C    0  0  0  0  0  0  0  0  0  0  0  0
    2.8312   -5.1625    0.0000 C    0  0  0  0  0  0  0  0  0  0  0  0
    2.3386   -4.3092    0.0000 C    0  0  0  0  0  0  0  0  0  0  0  0
    1.3533   -4.3092    0.0000 C    0  0  0  0  0  0  0  0  0  0  0  0
    0.5000   -4.8018    0.0000 C    0  0  0  0  0  0  0  0  0  0  0  0
    1.3533   -5.2945    0.0000 C    0  0  0  0  0  0  0  0  0  0  0  0
    0.8606   -3.4559    0.0000 C    0  0  0  0  0  0  0  0  0  0  0  0
    2.8312   -3.4559    0.0000 C    0  0  0  0  0  0  0  0  0  0  0  0
    3.8165   -3.4559    0.0000 C    0  0  0  0  0  0  0  0  0  0  0  0
    5.2945   -2.6026    0.0000 S    0  0  0  0  0  0  0  0  0  0  0  0
    8.7430   -5.1625    0.0000 C    0  0  0  0  0  0  0  0  0  0  0  0
   14.2381   -0.5000    0.0000 Br   0  5  0  0  0  0  0  0  0  0  0  0
  1  2  1  0  0  0  0
  2  3  1  0  0  0  0
  2  4  1  0  0  0  0
  2  5  1  0  0  0  0
  5  6  1  0  0  0  0
  5 12  1  0  0  0  0
  5 18  1  0  0  0  0
  6 11  2  0  0  0  0
  6  7  1  0  0  0  0
  7  8  2  0  0  0  0
  8  9  1  0  0  0  0
  9 10  2  0  0  0  0
 10 11  1  0  0  0  0
 12 17  2  0  0  0  0
 12 13  1  0  0  0  0
 13 14  2  0  0  0  0
 14 15  1  0  0  0  0
 15 16  2  0  0  0  0
 16 17  1  0  0  0  0
 18 19  1  0  0  0  0
 19 20  1  0  0  0  0
 19 62  1  1  0  0  0
 20 21  1  6  0  0  0
 20 48  1  0  0  0  0
 21 22  1  0  0  0  0
 22 23  1  0  0  0  0
 22 36  1  0  0  0  0
 22 42  1  0  0  0  0
 23 24  1  0  0  0  0
 24 35  2  0  0  0  0
 24 25  1  0  0  0  0
 25 26  2  0  0  0  0
 26 27  1  0  0  0  0
 26 29  1  0  0  0  0
 27 28  1  0  0  0  0
 29 30  1  0  0  0  0
 29 32  2  0  0  0  0
 30 31  1  0  0  0  0
 32 33  1  0  0  0  0
 32 35  1  0  0  0  0
 33 34  1  0  0  0  0
 36 41  2  0  0  0  0
 36 37  1  0  0  0  0
 37 38  2  0  0  0  0
 38 39  1  0  0  0  0
 39 40  2  0  0  0  0
 40 41  1  0  0  0  0
 42 47  2  0  0  0  0
 42 43  1  0  0  0  0
 43 44  2  0  0  0  0
 44 45  1  0  0  0  0
 45 46  2  0  0  0  0
 46 47  1  0  0  0  0
 48 49  1  0  0  0  0
 49 50  1  0  0  0  0
 49 61  2  0  0  0  0
 50 51  1  0  0  0  0
 51 60  2  0  0  0  0
 51 52  1  0  0  0  0
 52 53  2  0  0  0  0
 53 54  1  0  0  0  0
 54 55  1  0  0  0  0
 54 59  2  0  0  0  0
 55 56  1  0  0  0  0
 55 57  1  0  0  0  0
 55 58  1  0  0  0  0
 59 60  1  0  0  0  0
M  END
> <NMREDATA_VERSION>
1.1

> <NMREDATA_LEVEL>
0

> <NMREDATA_SOLVENT>
CDCl3

> <NMREDATA_FORMULA>
C53H64BrN2O4PSSi

> <NMREDATA_SMILES>
COc1c(OC)cc(cc1OC)CP(c1ccccc1)(c1ccccc1)C[C@@H]([C@@H](O[Si](C(C)(C)C)(c1ccccc1)c1ccccc1)C)NC(=S)Nc1ccc(cc1)C(C)(C)C.Br

> <NMREDATA_ASSIGNMENT>
P22, 26.64, 22

> <NMREDATA_1D_31P>
Larmor=162
26.64, L=P22

$$$$
