
 OpenBabel06112616462D

 37 41  0  0  0  0  0  0  0  0999 V2000
    0.7890    0.4556    0.0000 C   0  0  0  0  0  0  0  0  0  0  0  0
    1.5781    0.0000    0.0000 C   0  0  0  0  0  0  0  0  0  0  0  0
    1.5781   -0.9111    0.0000 C   0  0  0  0  0  0  0  0  0  0  0  0
    0.7890   -1.3667    0.0000 C   0  0  0  0  0  0  0  0  0  0  0  0
    0.7890   -2.2778    0.0000 P   0  0  0  0  0  0  0  0  0  0  0  0
    0.0000   -2.7333    0.0000 C   0  0  0  0  0  0  0  0  0  0  0  0
    0.0000   -3.6444    0.0000 C   0  0  0  0  0  0  0  0  0  0  0  0
   -0.7890   -4.1000    0.0000 C   0  0  0  0  0  0  0  0  0  0  0  0
   -1.5781   -3.6444    0.0000 C   0  0  0  0  0  0  0  0  0  0  0  0
   -1.5781   -2.7333    0.0000 C   0  0  0  0  0  0  0  0  0  0  0  0
   -0.7890   -2.2778    0.0000 C   0  0  0  0  0  0  0  0  0  0  0  0
    3.9452   -4.1000    0.0000 C   0  0  0  0  0  0  0  0  0  0  0  0
    4.7343   -3.6444    0.0000 C   0  0  0  0  0  0  0  0  0  0  0  0
    4.7343   -1.8222    0.0000 C   0  0  0  0  0  0  0  0  0  0  0  0
    5.5233   -1.3667    0.0000 C   0  0  0  0  0  0  0  0  0  0  0  0
    6.3124   -1.8222    0.0000 C   0  0  0  0  0  0  0  0  0  0  0  0
    6.3124   -2.7333    0.0000 C   0  0  0  0  0  0  0  0  0  0  0  0
    7.1014   -3.1889    0.0000 C   0  0  0  0  0  0  0  0  0  0  0  0
    7.8905   -2.7333    0.0000 C   0  0  0  0  0  0  0  0  0  0  0  0
    8.6795   -3.1889    0.0000 N   0  0  0  0  0  0  0  0  0  0  0  0
    9.4685   -2.7333    0.0000 C   0  0  0  0  0  0  0  0  0  0  0  0
    8.6795   -4.1000    0.0000 C   0  0  0  0  0  0  0  0  0  0  0  0
    7.8905   -1.8222    0.0000 C   0  0  0  0  0  0  0  0  0  0  0  0
    7.1014   -1.3667    0.0000 C   0  0  0  0  0  0  0  0  0  0  0  0
    5.5233   -0.4556    0.0000 C   0  0  0  0  0  0  0  0  0  0  0  0
    4.7343    0.0000    0.0000 C   0  0  0  0  0  0  0  0  0  0  0  0
    3.9452   -0.4556    0.0000 C   0  0  0  0  0  0  0  0  0  0  0  0
    3.9452   -1.3667    0.0000 C   0  0  0  0  0  0  0  0  0  0  0  0
    3.1562   -1.8222    0.0000 N   0  0  0  0  0  0  0  0  0  0  0  0
    3.1562   -2.7333    0.0000 C   0  0  0  0  0  0  0  0  0  0  0  0
    2.3671   -1.3667    0.0000 C   0  0  0  0  0  0  0  0  0  0  0  0
    5.5233   -4.1000    0.0000 C   0  0  0  0  0  0  0  0  0  0  0  0
    5.5233   -5.0111    0.0000 C   0  0  0  0  0  0  0  0  0  0  0  0
    4.7343   -5.4667    0.0000 C   0  0  0  0  0  0  0  0  0  0  0  0
    3.9452   -5.0111    0.0000 C   0  0  0  0  0  0  0  0  0  0  0  0
    0.0000   -0.9111    0.0000 C   0  0  0  0  0  0  0  0  0  0  0  0
    0.0000    0.0000    0.0000 C   0  0  0  0  0  0  0  0  0  0  0  0
  1 37  1  0  0  0  0
  1  2  1  0  0  0  0
  2  3  1  0  0  0  0
  3  4  1  0  0  0  0
  4  5  1  0  0  0  0
  4 36  1  0  0  0  0
  5  6  1  0  0  0  0
  5 12  1  0  0  0  0
  6 11  1  0  0  0  0
  6  7  1  0  0  0  0
  7  8  1  0  0  0  0
  8  9  1  0  0  0  0
  9 10  1  0  0  0  0
 10 11  1  0  0  0  0
 12 35  2  0  0  0  0
 12 13  1  0  0  0  0
 13 14  1  0  0  0  0
 13 32  2  0  0  0  0
 14 28  2  0  0  0  0
 14 15  1  0  0  0  0
 15 16  1  0  0  0  0
 15 25  2  0  0  0  0
 16 24  2  0  0  0  0
 16 17  1  0  0  0  0
 17 18  2  0  0  0  0
 18 19  1  0  0  0  0
 19 20  1  0  0  0  0
 19 23  2  0  0  0  0
 20 21  1  0  0  0  0
 20 22  1  0  0  0  0
 23 24  1  0  0  0  0
 25 26  1  0  0  0  0
 26 27  2  0  0  0  0
 27 28  1  0  0  0  0
 28 29  1  0  0  0  0
 29 30  1  0  0  0  0
 29 31  1  0  0  0  0
 32 33  1  0  0  0  0
 33 34  2  0  0  0  0
 34 35  1  0  0  0  0
 36 37  1  0  0  0  0
M  END
> <NMREDATA_VERSION>
1.1

> <NMREDATA_LEVEL>
0

> <NMREDATA_SOLVENT>
CDCl3

> <NMREDATA_FORMULA>
C34H45N2P

> <NMREDATA_SMILES>
CN(c1ccc(cc1)c1cccc(c1c1ccccc1P(C1CCCCC1)C1CCCCC1)N(C)C)C

> <NMREDATA_ASSIGNMENT>
P5, -9.00, 5

> <NMREDATA_1D_31P>
Larmor=162
-9.00, L=P5

$$$$
