
 OpenBabel06112616432D

 34 37  0  0  0  0  0  0  0  0999 V2000
    5.5500   -0.9250    0.0000 C    0  0  0  0  0  0  0  0  0  0  0  0
    5.0875   -0.1239    0.0000 C    0  0  0  0  0  0  0  0  0  0  0  0
    5.5500    0.6771    0.0000 C    0  0  0  0  0  0  0  0  0  0  0  0
    4.1625   -0.1239    0.0000 N    0  0  0  0  0  0  0  0  0  0  0  0
    3.7000   -0.9250    0.0000 C    0  0  0  0  0  0  0  0  0  0  0  0
    4.1625   -1.7261    0.0000 O    0  0  0  0  0  0  0  0  0  0  0  0
    2.7750   -0.9250    0.0000 C    0  0  0  0  0  0  0  0  0  0  0  0
    2.3125   -0.1239    0.0000 C    0  0  0  0  0  0  0  0  0  0  0  0
    1.3875   -0.1239    0.0000 C    0  0  0  0  0  0  0  0  0  0  0  0
    0.9250   -0.9250    0.0000 C    0  0  0  0  0  0  0  0  0  0  0  0
    0.0000   -0.9250    0.0000 P    0  0  0  0  0  0  0  0  0  0  0  0
    0.0000   -1.8500    0.0000 C    0  0  0  0  0  0  0  0  0  0  0  0
   -0.8011   -2.3125    0.0000 C    0  0  0  0  0  0  0  0  0  0  0  0
   -0.8011   -3.2375    0.0000 C    0  0  0  0  0  0  0  0  0  0  0  0
    0.0000   -3.7000    0.0000 C    0  0  0  0  0  0  0  0  0  0  0  0
    0.8011   -3.2375    0.0000 C    0  0  0  0  0  0  0  0  0  0  0  0
    0.8011   -2.3125    0.0000 C    0  0  0  0  0  0  0  0  0  0  0  0
   -3.7000   -0.9250    0.0000 N    0  0  0  0  0  0  0  0  0  0  0  0
   -4.1625   -0.1239    0.0000 C    0  0  0  0  0  0  0  0  0  0  0  0
   -3.7000    0.6771    0.0000 C    0  0  0  0  0  0  0  0  0  0  0  0
   -2.7750    0.6771    0.0000 Cl   0  0  0  0  0  0  0  0  0  0  0  0
   -4.1625    1.4782    0.0000 C    0  0  0  0  0  0  0  0  0  0  0  0
   -5.0875    1.4782    0.0000 C    0  0  0  0  0  0  0  0  0  0  0  0
   -5.5500    0.6771    0.0000 C    0  0  0  0  0  0  0  0  0  0  0  0
   -5.0875   -0.1239    0.0000 C    0  0  0  0  0  0  0  0  0  0  0  0
   -5.5500   -0.9250    0.0000 Cl   0  0  0  0  0  0  0  0  0  0  0  0
    0.0000    0.0000    0.0000 C    0  0  0  0  0  0  0  0  0  0  0  0
    0.8011    0.4625    0.0000 C    0  0  0  0  0  0  0  0  0  0  0  0
    0.8011    1.3875    0.0000 C    0  0  0  0  0  0  0  0  0  0  0  0
    0.0000    1.8500    0.0000 C    0  0  0  0  0  0  0  0  0  0  0  0
   -0.8011    1.3875    0.0000 C    0  0  0  0  0  0  0  0  0  0  0  0
   -0.8011    0.4625    0.0000 C    0  0  0  0  0  0  0  0  0  0  0  0
    1.3875   -1.7261    0.0000 C    0  0  0  0  0  0  0  0  0  0  0  0
    2.3125   -1.7261    0.0000 C    0  0  0  0  0  0  0  0  0  0  0  0
  1  2  1  0  0  0  0
  2  3  1  0  0  0  0
  2  4  1  0  0  0  0
  4  5  1  0  0  0  0
  5  6  2  0  0  0  0
  5  7  1  0  0  0  0
  7 34  2  0  0  0  0
  7  8  1  0  0  0  0
  8  9  2  0  0  0  0
  9 10  1  0  0  0  0
 10 11  1  0  0  0  0
 10 33  2  0  0  0  0
 11 12  1  0  0  0  0
 11 18  2  0  0  0  0
 11 27  1  0  0  0  0
 12 17  2  0  0  0  0
 12 13  1  0  0  0  0
 13 14  2  0  0  0  0
 14 15  1  0  0  0  0
 15 16  2  0  0  0  0
 16 17  1  0  0  0  0
 18 19  1  0  0  0  0
 19 25  2  0  0  0  0
 19 20  1  0  0  0  0
 20 21  1  0  0  0  0
 20 22  2  0  0  0  0
 22 23  1  0  0  0  0
 23 24  2  0  0  0  0
 24 25  1  0  0  0  0
 25 26  1  0  0  0  0
 27 32  2  0  0  0  0
 27 28  1  0  0  0  0
 28 29  2  0  0  0  0
 29 30  1  0  0  0  0
 30 31  2  0  0  0  0
 31 32  1  0  0  0  0
 33 34  1  0  0  0  0
M  END
> <NMREDATA_VERSION>
1.1

> <NMREDATA_LEVEL>
0

> <NMREDATA_SOLVENT>
CDCl3

> <NMREDATA_FORMULA>
C28H25Cl2N2OP

> <NMREDATA_SMILES>
CC(NC(=O)c1ccc(cc1)P(=Nc1c(Cl)cccc1Cl)(c1ccccc1)c1ccccc1)C

> <NMREDATA_ASSIGNMENT>
P11, -0.80, 11

> <NMREDATA_1D_31P>
Larmor=162
-0.80, L=P11

$$$$
