
 OpenBabel06112616472D

 26 29  0  0  0  0  0  0  0  0999 V2000
    0.8372    1.4500    0.0000 Cl   0  0  0  0  0  0  0  0  0  0  0  0
    0.8372    0.4833    0.0000 C    0  0  0  0  0  0  0  0  0  0  0  0
    1.6743    0.0000    0.0000 C    0  0  0  0  0  0  0  0  0  0  0  0
    1.6743   -0.9667    0.0000 C    0  0  0  0  0  0  0  0  0  0  0  0
    0.8372   -1.4500    0.0000 C    0  0  0  0  0  0  0  0  0  0  0  0
    0.8372   -2.4167    0.0000 C    0  0  0  0  0  0  0  0  0  0  0  0
    1.6743   -2.9000    0.0000 C    0  0  0  0  0  0  0  0  0  0  0  0
    1.6743   -3.8667    0.0000 C    0  0  0  0  0  0  0  0  0  0  0  0
    0.8372   -4.3500    0.0000 C    0  0  0  0  0  0  0  0  0  0  0  0
    0.0000   -3.8667    0.0000 C    0  0  0  0  0  0  0  0  0  0  0  0
    0.0000   -2.9000    0.0000 C    0  0  0  0  0  0  0  0  0  0  0  0
   -1.6743   -1.9333    0.0000 P    0  0  0  0  0  0  0  0  0  0  0  0
   -1.6743   -0.9667    0.0000 C    0  0  0  0  0  0  0  0  0  0  0  0
   -2.5115   -0.4833    0.0000 C    0  0  0  0  0  0  0  0  0  0  0  0
   -2.5115    0.4833    0.0000 C    0  0  0  0  0  0  0  0  0  0  0  0
   -1.6743    0.9667    0.0000 C    0  0  0  0  0  0  0  0  0  0  0  0
   -0.8372    0.4833    0.0000 C    0  0  0  0  0  0  0  0  0  0  0  0
   -0.8372   -0.4833    0.0000 C    0  0  0  0  0  0  0  0  0  0  0  0
   -2.5115   -2.4167    0.0000 C    0  0  0  0  0  0  0  0  0  0  0  0
   -2.5115   -3.3833    0.0000 C    0  0  0  0  0  0  0  0  0  0  0  0
   -3.3486   -3.8667    0.0000 C    0  0  0  0  0  0  0  0  0  0  0  0
   -4.1858   -3.3833    0.0000 C    0  0  0  0  0  0  0  0  0  0  0  0
   -4.1858   -2.4167    0.0000 C    0  0  0  0  0  0  0  0  0  0  0  0
   -3.3486   -1.9333    0.0000 C    0  0  0  0  0  0  0  0  0  0  0  0
    0.0000   -0.9667    0.0000 C    0  0  0  0  0  0  0  0  0  0  0  0
    0.0000    0.0000    0.0000 C    0  0  0  0  0  0  0  0  0  0  0  0
  1  2  1  0  0  0  0
  2 26  2  0  0  0  0
  2  3  1  0  0  0  0
  3  4  2  0  0  0  0
  4  5  1  0  0  0  0
  5  6  1  0  0  0  0
  5 25  2  0  0  0  0
  6 11  2  0  0  0  0
  6  7  1  0  0  0  0
  7  8  2  0  0  0  0
  8  9  1  0  0  0  0
  9 10  2  0  0  0  0
 10 11  1  0  0  0  0
 11 12  1  0  0  0  0
 12 13  1  0  0  0  0
 12 19  1  0  0  0  0
 13 18  2  0  0  0  0
 13 14  1  0  0  0  0
 14 15  2  0  0  0  0
 15 16  1  0  0  0  0
 16 17  2  0  0  0  0
 17 18  1  0  0  0  0
 19 24  2  0  0  0  0
 19 20  1  0  0  0  0
 20 21  2  0  0  0  0
 21 22  1  0  0  0  0
 22 23  2  0  0  0  0
 23 24  1  0  0  0  0
 25 26  1  0  0  0  0
M  END
> <NMREDATA_VERSION>
1.1

> <NMREDATA_LEVEL>
0

> <NMREDATA_SOLVENT>
CDCl3

> <NMREDATA_FORMULA>
C24H18ClP

> <NMREDATA_SMILES>
Clc1ccc(cc1)c1ccccc1P(c1ccccc1)c1ccccc1

> <NMREDATA_ASSIGNMENT>
P12, -13.50, 12

> <NMREDATA_1D_31P>
Larmor=162
-13.50, L=P12

$$$$
