
 OpenBabel06112616482D

 38 42  0  0  0  0  0  0  0  0999 V2000
    2.5755   -4.5639    0.0000 C   0  0  0  0  0  0  0  0  0  0  0  0
    2.1768   -3.6682    0.0000 C   0  0  0  0  0  0  0  0  0  0  0  0
    2.7536   -2.8748    0.0000 C   0  0  0  0  0  0  0  0  0  0  0  0
    2.3547   -1.9785    0.0000 C   0  0  0  0  0  0  0  0  0  0  0  0
    1.3792   -1.8761    0.0000 C   0  0  0  0  0  0  0  0  0  0  0  0
    0.9804   -0.9804    0.0000 S   0  0  0  0  0  0  0  0  0  0  0  0
    0.0000   -0.9804    0.0000 P   0  0  0  0  0  0  0  0  0  0  0  0
    0.0000   -1.9608    0.0000 O   0  0  0  0  0  0  0  0  0  0  0  0
   -0.9804   -0.9804    0.0000 O   0  0  0  0  0  0  0  0  0  0  0  0
   -1.4706   -1.8295    0.0000 C   0  0  0  0  0  0  0  0  0  0  0  0
   -0.9804   -2.6786    0.0000 C   0  0  0  0  0  0  0  0  0  0  0  0
   -1.4706   -3.5276    0.0000 C   0  0  0  0  0  0  0  0  0  0  0  0
   -0.9804   -4.3767    0.0000 C   0  0  0  0  0  0  0  0  0  0  0  0
    0.0000    0.0000    0.0000 O   0  0  0  0  0  0  0  0  0  0  0  0
    0.8491    0.4902    0.0000 C   0  0  0  0  0  0  0  0  0  0  0  0
    1.6981    0.0000    0.0000 C   0  0  0  0  0  0  0  0  0  0  0  0
    2.5472    0.4902    0.0000 C   0  0  0  0  0  0  0  0  0  0  0  0
    2.5472    1.4706    0.0000 C   0  0  0  0  0  0  0  0  0  0  0  0
    0.8029   -2.6692    0.0000 C   0  0  0  0  0  0  0  0  0  0  0  0
   -0.1728   -2.5665    0.0000 C   0  0  0  0  0  0  0  0  0  0  0  0
   -0.7495   -3.3601    0.0000 C   0  0  0  0  0  0  0  0  0  0  0  0
   -0.3506   -4.2564    0.0000 C   0  0  0  0  0  0  0  0  0  0  0  0
   -0.9553   -5.0885    0.0000 O   0  0  0  0  0  0  0  0  0  0  0  0
   -1.9783   -4.9809    0.0000 C   0  0  0  0  0  0  0  0  0  0  0  0
    0.6250   -4.3591    0.0000 C   0  0  0  0  0  0  0  0  0  0  0  0
    1.2018   -3.5655    0.0000 C   0  0  0  0  0  0  0  0  0  0  0  0
    2.9310   -1.1854    0.0000 C   0  0  0  0  0  0  0  0  0  0  0  0
    3.9065   -1.2879    0.0000 C   0  0  0  0  0  0  0  0  0  0  0  0
    4.4833   -0.4945    0.0000 C   0  0  0  0  0  0  0  0  0  0  0  0
    5.4584   -0.5972    0.0000 C   0  0  0  0  0  0  0  0  0  0  0  0
    5.8573   -1.4935    0.0000 C   0  0  0  0  0  0  0  0  0  0  0  0
    5.2809   -2.2866    0.0000 C   0  0  0  0  0  0  0  0  0  0  0  0
    4.3054   -2.1841    0.0000 C   0  0  0  0  0  0  0  0  0  0  0  0
    3.5559   -4.5640    0.0000 C   0  0  0  0  0  0  0  0  0  0  0  0
    4.0460   -5.4131    0.0000 C   0  0  0  0  0  0  0  0  0  0  0  0
    3.5557   -6.2621    0.0000 C   0  0  0  0  0  0  0  0  0  0  0  0
    2.5752   -6.2620    0.0000 C   0  0  0  0  0  0  0  0  0  0  0  0
    2.0851   -5.4129    0.0000 C   0  0  0  0  0  0  0  0  0  0  0  0
  1 38  2  0  0  0  0
  1  2  1  0  0  0  0
  1 34  1  0  0  0  0
  2 26  2  0  0  0  0
  2  3  1  0  0  0  0
  3 33  1  0  0  0  0
  3  4  2  0  0  0  0
  4  5  1  0  0  0  0
  4 27  1  0  0  0  0
  5  6  1  0  0  0  0
  5 19  2  0  0  0  0
  6  7  1  0  0  0  0
  7  8  2  0  0  0  0
  7  9  1  0  0  0  0
  7 14  1  0  0  0  0
  9 10  1  0  0  0  0
 10 11  1  0  0  0  0
 11 12  1  0  0  0  0
 12 13  1  0  0  0  0
 14 15  1  0  0  0  0
 15 16  1  0  0  0  0
 16 17  1  0  0  0  0
 17 18  1  0  0  0  0
 19 26  1  0  0  0  0
 19 20  1  0  0  0  0
 20 21  2  0  0  0  0
 21 22  1  0  0  0  0
 22 23  1  0  0  0  0
 22 25  2  0  0  0  0
 23 24  1  0  0  0  0
 25 26  1  0  0  0  0
 27 28  1  0  0  0  0
 28 33  2  0  0  0  0
 28 29  1  0  0  0  0
 29 30  2  0  0  0  0
 30 31  1  0  0  0  0
 31 32  2  0  0  0  0
 32 33  1  0  0  0  0
 34 35  2  0  0  0  0
 35 36  1  0  0  0  0
 36 37  2  0  0  0  0
 37 38  1  0  0  0  0
M  END
> <NMREDATA_VERSION>
1.1

> <NMREDATA_LEVEL>
0

> <NMREDATA_SOLVENT>
CDCl3

> <NMREDATA_FORMULA>
C32H35O4PS

> <NMREDATA_SMILES>
CCCCOP(=O)(Sc1c2Cc3c(-c2c(c2c1ccc(c2)OC)c1ccccc1)cccc3)OCCCC

> <NMREDATA_ASSIGNMENT>
P7, 23.04, 7

> <NMREDATA_1D_31P>
Larmor=162
23.04, L=P7

$$$$
