
 OpenBabel06112616482D

 26 29  0  0  1  0  0  0  0  0999 V2000
    2.5276    1.4592    0.0000 C   0  0  0  0  0  0  0  0  0  0  0  0
    1.6852    0.9728    0.0000 C   0  0  0  0  0  0  0  0  0  0  0  0
    1.6852    0.0000    0.0000 C   0  0  0  0  0  0  0  0  0  0  0  0
    2.5381   -0.4924    0.0000 C   0  0  0  0  0  0  0  0  0  0  0  0
    0.8426   -0.4865    0.0000 P   0  0  3  0  0  0  0  0  0  0  0  0
    1.0449   -1.4503    0.0000 S   0  0  0  0  0  0  0  0  0  0  0  0
    0.4155    0.4865    0.0000 C   0  0  0  0  0  0  0  0  0  0  0  0
    0.8426    1.4593    0.0000 C   0  0  3  0  0  0  0  0  0  0  0  0
    1.0448    2.4231    0.0000 C   0  0  0  0  0  0  0  0  0  0  0  0
    0.0000    0.9728    0.0000 C   0  0  3  0  0  0  0  0  0  0  0  0
   -0.8425    1.4592    0.0000 C   0  0  0  0  0  0  0  0  0  0  0  0
   -1.7312    1.0635    0.0000 C   0  0  0  0  0  0  0  0  0  0  0  0
   -2.5182    1.6353    0.0000 C   0  0  0  0  0  0  0  0  0  0  0  0
   -2.4165    2.6027    0.0000 C   0  0  0  0  0  0  0  0  0  0  0  0
   -1.5278    2.9984    0.0000 C   0  0  0  0  0  0  0  0  0  0  0  0
   -0.7408    2.4266    0.0000 C   0  0  0  0  0  0  0  0  0  0  0  0
    0.0000    0.0000    0.0000 C   0  0  3  0  0  0  0  0  0  0  0  0
   -0.8425   -0.4864    0.0000 C   0  0  0  0  0  0  0  0  0  0  0  0
   -1.6295    0.0854    0.0000 O   0  0  0  0  0  0  0  0  0  0  0  0
   -0.9441   -1.4539    0.0000 O   0  0  0  0  0  0  0  0  0  0  0  0
   -1.8328   -1.8495    0.0000 C   0  0  0  0  0  0  0  0  0  0  0  0
    2.5276    2.4320    0.0000 C   0  0  0  0  0  0  0  0  0  0  0  0
    3.3701    2.9184    0.0000 C   0  0  0  0  0  0  0  0  0  0  0  0
    4.2126    2.4320    0.0000 C   0  0  0  0  0  0  0  0  0  0  0  0
    4.2126    1.4592    0.0000 C   0  0  0  0  0  0  0  0  0  0  0  0
    3.3701    0.9728    0.0000 C   0  0  0  0  0  0  0  0  0  0  0  0
  1 26  2  0  0  0  0
  1  2  1  0  0  0  0
  1 22  1  0  0  0  0
  2  8  1  0  0  0  0
  2  3  2  0  0  0  0
  3  4  1  0  0  0  0
  3  5  1  0  0  0  0
  5 17  1  0  0  0  0
  5  6  2  0  0  0  0
  5  7  1  0  0  0  0
  7  8  1  0  0  0  0
  8  9  1  0  0  0  0
  8 10  1  0  0  0  0
 10 11  1  0  0  0  0
 10 17  1  0  0  0  0
 11 16  2  0  0  0  0
 11 12  1  0  0  0  0
 12 13  2  0  0  0  0
 13 14  1  0  0  0  0
 14 15  2  0  0  0  0
 15 16  1  0  0  0  0
 17 18  1  0  0  0  0
 18 19  2  0  0  0  0
 18 20  1  0  0  0  0
 20 21  1  0  0  0  0
 22 23  2  0  0  0  0
 23 24  1  0  0  0  0
 24 25  2  0  0  0  0
 25 26  1  0  0  0  0
M  END
> <NMREDATA_VERSION>
1.1

> <NMREDATA_LEVEL>
0

> <NMREDATA_SOLVENT>
CDCl3

> <NMREDATA_FORMULA>
C22H23O2PS

> <NMREDATA_SMILES>
COC(=O)C1C(c2ccccc2)C2(CP1(=S)C(=C2c1ccccc1)C)C

> <NMREDATA_ASSIGNMENT>
P5, 60.62, 5

> <NMREDATA_1D_31P>
Larmor=121
60.62, L=P5

$$$$
