
 OpenBabel06112616472D

 31 33  0  0  1  0  0  0  0  0999 V2000
   -5.7330    0.7261    0.0000 C   0  0  0  0  0  0  0  0  0  0  0  0
   -6.4762    1.3953    0.0000 O   0  0  0  0  0  0  0  0  0  0  0  0
   -5.9410   -0.2520    0.0000 O   0  0  0  0  0  0  0  0  0  0  0  0
   -6.8920   -0.5610    0.0000 C   0  0  0  0  0  0  0  0  0  0  0  0
   -4.7820    1.0352    0.0000 C   0  0  0  0  0  0  0  0  0  0  0  0
   -4.5741    2.0133    0.0000 C   0  0  0  0  0  0  0  0  0  0  0  0
   -3.6230    2.3223    0.0000 C   0  0  0  0  0  0  0  0  0  0  0  0
   -2.8799    1.6532    0.0000 C   0  0  0  0  0  0  0  0  0  0  0  0
   -3.0878    0.6750    0.0000 C   0  0  0  0  0  0  0  0  0  0  0  0
   -2.5000   -0.1340    0.0000 C   0  0  0  0  0  0  0  0  0  0  0  0
   -1.5000   -0.1340    0.0000 C   0  0  3  0  0  0  0  0  0  0  0  0
   -1.0000   -1.0000    0.0000 C   0  0  0  0  0  0  0  0  0  0  0  0
    0.0000   -1.0000    0.0000 P   0  0  0  0  0  0  0  0  0  0  0  0
    0.0000   -2.0000    0.0000 O   0  0  0  0  0  0  0  0  0  0  0  0
    1.0000   -1.0000    0.0000 O   0  0  0  0  0  0  0  0  0  0  0  0
    1.5000   -1.8660    0.0000 C   0  0  0  0  0  0  0  0  0  0  0  0
    2.5000   -1.8660    0.0000 C   0  0  0  0  0  0  0  0  0  0  0  0
    0.0000    0.0000    0.0000 O   0  0  0  0  0  0  0  0  0  0  0  0
    0.8660    0.5000    0.0000 C   0  0  0  0  0  0  0  0  0  0  0  0
    1.7321    0.0000    0.0000 C   0  0  0  0  0  0  0  0  0  0  0  0
   -1.0000    0.7321    0.0000 C   0  0  0  0  0  0  0  0  0  0  0  0
   -1.5000    1.5981    0.0000 C   0  0  0  0  0  0  0  0  0  0  0  0
   -1.0000    2.4641    0.0000 C   0  0  0  0  0  0  0  0  0  0  0  0
    0.0000    2.4641    0.0000 C   0  0  0  0  0  0  0  0  0  0  0  0
    0.5000    3.3301    0.0000 O   0  0  0  0  0  0  0  0  0  0  0  0
    1.5000    3.3301    0.0000 C   0  0  0  0  0  0  0  0  0  0  0  0
    0.5000    1.5981    0.0000 C   0  0  0  0  0  0  0  0  0  0  0  0
    0.0000    0.7321    0.0000 C   0  0  0  0  0  0  0  0  0  0  0  0
   -3.0878   -0.9430    0.0000 C   0  0  0  0  0  0  0  0  0  0  0  0
   -4.0388   -0.6340    0.0000 N   0  0  0  0  0  0  0  0  0  0  0  0
   -4.0388    0.3660    0.0000 C   0  0  0  0  0  0  0  0  0  0  0  0
  1  2  2  0  0  0  0
  1  3  1  0  0  0  0
  1  5  1  0  0  0  0
  3  4  1  0  0  0  0
  5 31  2  0  0  0  0
  5  6  1  0  0  0  0
  6  7  2  0  0  0  0
  7  8  1  0  0  0  0
  8  9  2  0  0  0  0
  9 31  1  0  0  0  0
  9 10  1  0  0  0  0
 10 11  1  0  0  0  0
 10 29  2  0  0  0  0
 11 12  1  0  0  0  0
 11 21  1  0  0  0  0
 12 13  1  0  0  0  0
 13 14  2  0  0  0  0
 13 15  1  0  0  0  0
 13 18  1  0  0  0  0
 15 16  1  0  0  0  0
 16 17  1  0  0  0  0
 18 19  1  0  0  0  0
 19 20  1  0  0  0  0
 21 28  2  0  0  0  0
 21 22  1  0  0  0  0
 22 23  2  0  0  0  0
 23 24  1  0  0  0  0
 24 25  1  0  0  0  0
 24 27  2  0  0  0  0
 25 26  1  0  0  0  0
 27 28  1  0  0  0  0
 29 30  1  0  0  0  0
 30 31  1  0  0  0  0
M  END
> <NMREDATA_VERSION>
1.1

> <NMREDATA_LEVEL>
0

> <NMREDATA_SOLVENT>
CDCl3

> <NMREDATA_FORMULA>
C23H28NO6P

> <NMREDATA_SMILES>
CCOP(=O)(CC(c1c[nH]c2c1cccc2C(=O)OC)c1ccc(cc1)OC)OCC

> <NMREDATA_ASSIGNMENT>
P13, 29.50, 13

> <NMREDATA_1D_31P>
Larmor=162
29.50, L=P13

$$$$
