
 OpenBabel06112616482D

 36 36  0  0  1  0  0  0  0  0999 V2000
    0.9730   -2.9189    0.0000 C    0  0  0  0  0  0  0  0  0  0  0  0
    1.8156   -2.4324    0.0000 C    0  0  0  0  0  0  0  0  0  0  0  0
    1.8156   -1.4595    0.0000 C    0  0  0  0  0  0  0  0  0  0  0  0
    0.9730   -0.9730    0.0000 C    0  0  0  0  0  0  0  0  0  0  0  0
    0.9730    0.0000    0.0000 Sn   0  0  0  0  0  0  0  0  0  0  0  0
    1.9459    0.0000    0.0000 C    0  0  0  0  0  0  0  0  0  0  0  0
    2.4324    0.8426    0.0000 C    0  0  0  0  0  0  0  0  0  0  0  0
    3.4054    0.8426    0.0000 C    0  0  0  0  0  0  0  0  0  0  0  0
    3.8919    1.6852    0.0000 C    0  0  0  0  0  0  0  0  0  0  0  0
    0.9730    0.9730    0.0000 C    0  0  0  0  0  0  0  0  0  0  0  0
    1.8156    1.4595    0.0000 C    0  0  0  0  0  0  0  0  0  0  0  0
    1.8156    2.4324    0.0000 C    0  0  0  0  0  0  0  0  0  0  0  0
    2.6582    2.9189    0.0000 C    0  0  0  0  0  0  0  0  0  0  0  0
    0.0000    0.0000    0.0000 C    0  0  3  0  0  0  0  0  0  0  0  0
   -0.4865    0.8426    0.0000 C    0  0  0  0  0  0  0  0  0  0  0  0
    0.0000    1.6852    0.0000 C    0  0  0  0  0  0  0  0  0  0  0  0
    0.9730    1.6852    0.0000 C    0  0  0  0  0  0  0  0  0  0  0  0
   -0.4865   -0.8426    0.0000 P    0  0  3  0  0  0  0  0  0  0  0  0
    0.3561   -1.3291    0.0000 O    0  0  0  0  0  0  0  0  0  0  0  0
   -0.9730   -1.6852    0.0000 C    0  0  0  0  0  0  0  0  0  0  0  0
   -1.9459   -1.6852    0.0000 C    0  0  0  0  0  0  0  0  0  0  0  0
   -2.4324   -2.5279    0.0000 C    0  0  0  0  0  0  0  0  0  0  0  0
   -1.9459   -3.3705    0.0000 C    0  0  0  0  0  0  0  0  0  0  0  0
   -0.9730   -3.3705    0.0000 C    0  0  0  0  0  0  0  0  0  0  0  0
   -0.4865   -2.5279    0.0000 C    0  0  0  0  0  0  0  0  0  0  0  0
   -1.3291   -0.3561    0.0000 C    0  0  0  0  0  0  0  0  0  0  0  0
   -3.0143   -1.3291    0.0000 C    0  0  0  0  0  0  0  0  0  0  0  0
   -3.8570   -0.8426    0.0000 Si   0  0  0  0  0  0  0  0  0  0  0  0
   -3.3705    0.0000    0.0000 C    0  0  0  0  0  0  0  0  0  0  0  0
   -4.6996   -0.3561    0.0000 C    0  0  0  0  0  0  0  0  0  0  0  0
   -4.3435   -1.6852    0.0000 C    0  0  0  0  0  0  0  0  0  0  0  0
   -1.3291    0.6168    0.0000 C    0  0  0  0  0  0  0  0  0  0  0  0
   -2.1717    1.1033    0.0000 Si   0  0  0  0  0  0  0  0  0  0  0  0
   -1.6852    1.9459    0.0000 C    0  0  0  0  0  0  0  0  0  0  0  0
   -3.0143    1.5898    0.0000 C    0  0  0  0  0  0  0  0  0  0  0  0
   -2.6582    0.2607    0.0000 C    0  0  0  0  0  0  0  0  0  0  0  0
  1  2  1  0  0  0  0
  2  3  1  0  0  0  0
  3  4  1  0  0  0  0
  4  5  1  0  0  0  0
  5  6  1  0  0  0  0
  5 10  1  0  0  0  0
  5 14  1  0  0  0  0
  6  7  1  0  0  0  0
  7  8  1  0  0  0  0
  8  9  1  0  0  0  0
 10 11  1  0  0  0  0
 11 12  1  0  0  0  0
 12 13  1  0  0  0  0
 14 15  1  0  0  0  0
 14 18  1  0  0  0  0
 15 16  1  0  0  0  0
 16 17  1  0  0  0  0
 18 19  2  0  0  0  0
 18 20  1  0  0  0  0
 18 26  1  0  0  0  0
 20 25  2  0  0  0  0
 20 21  1  0  0  0  0
 21 22  2  0  0  0  0
 22 23  1  0  0  0  0
 23 24  2  0  0  0  0
 24 25  1  0  0  0  0
 26 27  1  0  0  0  0
 26 32  1  0  0  0  0
 27 28  1  0  0  0  0
 28 29  1  0  0  0  0
 28 30  1  0  0  0  0
 28 31  1  0  0  0  0
 32 33  1  0  0  0  0
 33 34  1  0  0  0  0
 33 35  1  0  0  0  0
 33 36  1  0  0  0  0
M  END
> <NMREDATA_VERSION>
1.1

> <NMREDATA_LEVEL>
0

> <NMREDATA_FORMULA>
C31H63OPSi2Sn

> <NMREDATA_SMILES>
CCCC(P(=O)(C(C[Si](C)(C)C)C[Si](C)(C)C)c1ccccc1)[Sn](CCCC)(CCCC)CCCC

> <NMREDATA_ASSIGNMENT>
P18, 51.90, 18

> <NMREDATA_1D_31P>
Larmor=162
51.90, L=P18

$$$$
