
 OpenBabel06112616452D

 22 21  0  0  0  0  0  0  0  0999 V2000
    6.0981   -0.9019    0.0000 O    0  0  0  0  0  0  0  0  0  0  0  0
    5.5981   -1.7679    0.0000 N    0  3  0  0  0  0  0  0  0  0  0  0
    4.5981   -1.7679    0.0000 O    0  5  0  0  0  0  0  0  0  0  0  0
    6.0981   -2.6340    0.0000 C    0  0  0  0  0  0  0  0  0  0  0  0
    7.0981   -2.6340    0.0000 C    0  0  0  0  0  0  0  0  0  0  0  0
    7.5981   -3.5000    0.0000 C    0  0  0  0  0  0  0  0  0  0  0  0
    7.0981   -4.3660    0.0000 C    0  0  0  0  0  0  0  0  0  0  0  0
    6.0981   -4.3660    0.0000 C    0  0  0  0  0  0  0  0  0  0  0  0
    5.5981   -3.5000    0.0000 C    0  0  0  0  0  0  0  0  0  0  0  0
    4.5981   -3.5000    0.0000 C    0  0  0  0  0  0  0  0  0  0  0  0
    4.0981   -4.3660    0.0000 O    0  0  0  0  0  0  0  0  0  0  0  0
    3.0981   -4.3660    0.0000 P    0  0  3  0  0  0  0  0  0  0  0  0
    3.0981   -5.3660    0.0000 O    0  0  0  0  0  0  0  0  0  0  0  0
    2.0981   -4.3660    0.0000 O    0  0  0  0  0  0  0  0  0  0  0  0
    3.0981   -3.3660    0.0000 O    0  0  0  0  0  0  0  0  0  0  0  0
    2.2321   -2.8660    0.0000 C    0  0  0  0  0  0  0  0  0  0  0  0
    2.2321   -1.8660    0.0000 C    0  0  0  0  0  0  0  0  0  0  0  0
    1.3660   -1.3660    0.0000 N    0  3  0  0  0  0  0  0  0  0  0  0
    0.8660   -2.2321    0.0000 C    0  0  0  0  0  0  0  0  0  0  0  0
    0.5000   -0.8660    0.0000 C    0  0  0  0  0  0  0  0  0  0  0  0
    1.8660   -0.5000    0.0000 C    0  0  0  0  0  0  0  0  0  0  0  0
    8.5981   -0.5000    0.0000 Cl   0  5  0  0  0  0  0  0  0  0  0  0
  1  2  2  0  0  0  0
  2  3  1  0  0  0  0
  2  4  1  0  0  0  0
  4  9  2  0  0  0  0
  4  5  1  0  0  0  0
  5  6  2  0  0  0  0
  6  7  1  0  0  0  0
  7  8  2  0  0  0  0
  8  9  1  0  0  0  0
  9 10  1  0  0  0  0
 10 11  1  0  0  0  0
 11 12  1  0  0  0  0
 12 13  2  0  0  0  0
 12 14  1  0  0  0  0
 12 15  1  0  0  0  0
 15 16  1  0  0  0  0
 16 17  1  0  0  0  0
 17 18  1  0  0  0  0
 18 19  1  0  0  0  0
 18 20  1  0  0  0  0
 18 21  1  0  0  0  0
M  END
> <NMREDATA_VERSION>
1.1

> <NMREDATA_LEVEL>
0

> <NMREDATA_SOLVENT>
DMSO-d6

> <NMREDATA_FORMULA>
C12H20ClN2O6P

> <NMREDATA_SMILES>
ON(=O)c1ccccc1COP(=O)(OCCN(C)(C)C)O.Cl

> <NMREDATA_ASSIGNMENT>
P12, -0.99, 12

> <NMREDATA_1D_31P>
Larmor=202
-0.99, L=P12

$$$$
