
 OpenBabel06112616462D

 30 35  0  0  0  0  0  0  0  0999 V2000
    5.5099    0.0110    0.0000 C   0  0  0  0  0  0  0  0  0  0  0  0
    5.0468    0.8080    0.0000 C   0  0  0  0  0  0  0  0  0  0  0  0
    4.1262    0.8080    0.0000 C   0  0  0  0  0  0  0  0  0  0  0  0
    3.6686    1.5994    0.0000 C   0  0  0  0  0  0  0  0  0  0  0  0
    2.7530    1.5994    0.0000 C   0  0  0  0  0  0  0  0  0  0  0  0
    2.2848    0.8080    0.0000 C   0  0  0  0  0  0  0  0  0  0  0  0
    1.3642    0.8080    0.0000 C   0  0  0  0  0  0  0  0  0  0  0  0
    0.9117    0.0000    0.0000 C   0  0  0  0  0  0  0  0  0  0  0  0
    0.0000    0.0000    0.0000 P   0  0  0  0  0  0  0  0  0  0  0  0
   -0.3169    0.8548    0.0000 O   0  0  0  0  0  0  0  0  0  0  0  0
   -0.8548   -0.3169    0.0000 C   0  0  0  0  0  0  0  0  0  0  0  0
   -1.0078   -1.2156    0.0000 C   0  0  0  0  0  0  0  0  0  0  0  0
   -1.8626   -1.5325    0.0000 C   0  0  0  0  0  0  0  0  0  0  0  0
   -2.5645   -0.9507    0.0000 C   0  0  0  0  0  0  0  0  0  0  0  0
   -2.4115   -0.0519    0.0000 C   0  0  0  0  0  0  0  0  0  0  0  0
   -1.5567    0.2650    0.0000 C   0  0  0  0  0  0  0  0  0  0  0  0
    0.6338   -1.7096    0.0000 C   0  0  0  0  0  0  0  0  0  0  0  0
    1.5325   -1.8626    0.0000 C   0  0  0  0  0  0  0  0  0  0  0  0
    1.8494   -2.7175    0.0000 C   0  0  0  0  0  0  0  0  0  0  0  0
    1.2675   -3.4193    0.0000 C   0  0  0  0  0  0  0  0  0  0  0  0
    0.3688   -3.2663    0.0000 C   0  0  0  0  0  0  0  0  0  0  0  0
    0.0519   -2.4115    0.0000 C   0  0  0  0  0  0  0  0  0  0  0  0
    1.3642   -0.7914    0.0000 C   0  0  0  0  0  0  0  0  0  0  0  0
    2.2848   -0.7914    0.0000 C   0  0  0  0  0  0  0  0  0  0  0  0
    2.7530   -1.5829    0.0000 C   0  0  0  0  0  0  0  0  0  0  0  0
    3.6686   -1.5829    0.0000 C   0  0  0  0  0  0  0  0  0  0  0  0
    4.1262   -0.7914    0.0000 C   0  0  0  0  0  0  0  0  0  0  0  0
    5.0468   -0.7914    0.0000 C   0  0  0  0  0  0  0  0  0  0  0  0
    3.6686    0.0110    0.0000 C   0  0  0  0  0  0  0  0  0  0  0  0
    2.7530    0.0110    0.0000 C   0  0  0  0  0  0  0  0  0  0  0  0
  1 28  2  0  0  0  0
  1  2  1  0  0  0  0
  2  3  2  0  0  0  0
  3 29  1  0  0  0  0
  3  4  1  0  0  0  0
  4  5  2  0  0  0  0
  5  6  1  0  0  0  0
  6 30  2  0  0  0  0
  6  7  1  0  0  0  0
  7  8  2  0  0  0  0
  8  9  1  0  0  0  0
  8 23  1  0  0  0  0
  9 10  2  0  0  0  0
  9 11  1  0  0  0  0
  9 17  1  0  0  0  0
 11 16  2  0  0  0  0
 11 12  1  0  0  0  0
 12 13  2  0  0  0  0
 13 14  1  0  0  0  0
 14 15  2  0  0  0  0
 15 16  1  0  0  0  0
 17 22  2  0  0  0  0
 17 18  1  0  0  0  0
 18 19  2  0  0  0  0
 19 20  1  0  0  0  0
 20 21  2  0  0  0  0
 21 22  1  0  0  0  0
 23 24  2  0  0  0  0
 24 30  1  0  0  0  0
 24 25  1  0  0  0  0
 25 26  2  0  0  0  0
 26 27  1  0  0  0  0
 27 28  1  0  0  0  0
 27 29  2  0  0  0  0
 29 30  1  0  0  0  0
M  END
> <NMREDATA_VERSION>
1.1

> <NMREDATA_LEVEL>
0

> <NMREDATA_SOLVENT>
CDCl3

> <NMREDATA_FORMULA>
C28H19OP

> <NMREDATA_SMILES>
O=P(c1ccccc1)(c1ccccc1)c1cc2ccc3c4c2c(c1)ccc4ccc3

> <NMREDATA_ASSIGNMENT>
P9, 30.01, 9

> <NMREDATA_1D_31P>
Larmor=121
30.01, L=P9

$$$$
