
 OpenBabel06112616442D

 47 55  0  0  1  0  0  0  0  0999 V2000
    1.1847   -6.0093    0.0000 C   0  0  0  0  0  0  0  0  0  0  0  0
    0.3801   -6.4738    0.0000 C   0  0  0  0  0  0  0  0  0  0  0  0
   -0.5489   -6.4738    0.0000 F   0  0  0  0  0  0  0  0  0  0  0  0
   -0.0844   -5.6692    0.0000 F   0  0  0  0  0  0  0  0  0  0  0  0
    0.3801   -7.4028    0.0000 F   0  0  0  0  0  0  0  0  0  0  0  0
    1.9892   -6.4738    0.0000 C   0  0  0  0  0  0  0  0  0  0  0  0
    2.7938   -6.0093    0.0000 C   0  0  0  0  0  0  0  0  0  0  0  0
    2.7938   -5.0802    0.0000 C   0  0  0  0  0  0  0  0  0  0  0  0
    3.5984   -4.6157    0.0000 C   0  0  0  0  0  0  0  0  0  0  0  0
    3.5984   -3.6867    0.0000 C   0  0  0  0  0  0  0  0  0  0  0  0
    4.4029   -3.2222    0.0000 C   0  0  0  0  0  0  0  0  0  0  0  0
    5.2075   -3.6867    0.0000 C   0  0  0  0  0  0  0  0  0  0  0  0
    6.0120   -3.2222    0.0000 N   0  0  0  0  0  0  0  0  0  0  0  0
    6.8166   -3.6867    0.0000 C   0  0  0  0  0  0  0  0  0  0  0  0
    6.8166   -4.6157    0.0000 O   0  0  0  0  0  0  0  0  0  0  0  0
    7.6212   -3.2222    0.0000 N   0  0  0  0  0  0  0  0  0  0  0  0
    8.4257   -3.6867    0.0000 C   0  0  0  0  0  0  0  0  0  0  0  0
    9.2303   -3.2222    0.0000 C   0  0  0  0  0  0  0  0  0  0  0  0
   10.0348   -3.6867    0.0000 C   0  0  0  0  0  0  0  0  0  0  0  0
   10.0348   -4.6157    0.0000 C   0  0  0  0  0  0  0  0  0  0  0  0
    9.2303   -5.0802    0.0000 C   0  0  0  0  0  0  0  0  0  0  0  0
    8.4257   -4.6157    0.0000 C   0  0  0  0  0  0  0  0  0  0  0  0
    5.2075   -4.6157    0.0000 C   0  0  0  0  0  0  0  0  0  0  0  0
    4.4029   -5.0802    0.0000 C   0  0  0  0  0  0  0  0  0  0  0  0
    1.9892   -4.6157    0.0000 C   0  0  0  0  0  0  0  0  0  0  0  0
    1.9892   -0.8996    0.0000 P   0  0  3  0  0  0  0  0  0  0  0  0
    2.7938   -0.4351    0.0000 C   0  0  2  0  0  0  0  0  0  0  0  0
    3.4507    0.2218    0.0000 C   0  0  0  0  0  0  0  0  0  0  0  0
    4.3481   -0.0186    0.0000 C   0  0  2  0  0  0  0  0  0  0  0  0
    4.0135    0.6145    0.0000 C   0  0  0  0  0  0  0  0  0  0  0  0
    3.3098    0.7476    0.0000 C   0  0  1  0  0  0  0  0  0  0  0  0
    4.2906   -0.2331    0.0000 C   0  0  0  0  0  0  0  0  0  0  0  0
    3.9316   -1.5729    0.0000 C   0  0  1  0  0  0  0  0  0  0  0  0
    4.5885   -0.9160    0.0000 C   0  0  0  0  0  0  0  0  0  0  0  0
    3.0342   -1.3325    0.0000 C   0  0  0  0  0  0  0  0  0  0  0  0
    2.7670    0.2805    0.0000 C   0  0  0  0  0  0  0  0  0  0  0  0
    1.1847   -0.4351    0.0000 C   0  0  2  0  0  0  0  0  0  0  0  0
    1.8507    0.4706    0.0000 C   0  0  0  0  0  0  0  0  0  0  0  0
    1.4275    1.4361    0.0000 C   0  0  2  0  0  0  0  0  0  0  0  0
    0.3799    1.5522    0.0000 C   0  0  0  0  0  0  0  0  0  0  0  0
   -0.2440    0.7038    0.0000 C   0  0  1  0  0  0  0  0  0  0  0  0
   -0.2334   -0.2635    0.0000 C   0  0  0  0  0  0  0  0  0  0  0  0
    0.6250   -0.5457    0.0000 C   0  0  1  0  0  0  0  0  0  0  0  0
    1.3118    0.3883    0.0000 C   0  0  0  0  0  0  0  0  0  0  0  0
    1.2592   -1.3611    0.0000 C   0  0  0  0  0  0  0  0  0  0  0  0
    0.0000    0.0000    0.0000 C   0  0  0  0  0  0  0  0  0  0  0  0
    1.1847   -5.0802    0.0000 C   0  0  0  0  0  0  0  0  0  0  0  0
  1 47  2  0  0  0  0
  1  2  1  0  0  0  0
  1  6  1  0  0  0  0
  2  3  1  0  0  0  0
  2  4  1  0  0  0  0
  2  5  1  0  0  0  0
  6  7  2  0  0  0  0
  7  8  1  0  0  0  0
  8  9  1  0  0  0  0
  8 25  2  0  0  0  0
  9 24  2  0  0  0  0
  9 10  1  0  0  0  0
 10 11  2  0  0  0  0
 11 12  1  0  0  0  0
 12 13  1  0  0  0  0
 12 23  2  0  0  0  0
 13 14  1  0  0  0  0
 14 15  2  0  0  0  0
 14 16  1  0  0  0  0
 16 17  1  0  0  0  0
 17 22  2  0  0  0  0
 17 18  1  0  0  0  0
 18 19  2  0  0  0  0
 19 20  1  0  0  0  0
 20 21  2  0  0  0  0
 21 22  1  0  0  0  0
 23 24  1  0  0  0  0
 25 26  1  0  0  0  0
 25 47  1  0  0  0  0
 27 26  1  6  0  0  0
 27 35  1  0  0  0  0
 27 36  1  0  0  0  0
 27 28  1  0  0  0  0
 29 28  1  1  0  0  0
 29 30  1  0  0  0  0
 29 34  1  0  0  0  0
 31 30  1  1  0  0  0
 31 32  1  0  0  0  0
 31 36  1  0  0  0  0
 33 32  1  6  0  0  0
 33 34  1  0  0  0  0
 33 35  1  0  0  0  0
 37 26  1  6  0  0  0
 37 45  1  0  0  0  0
 37 46  1  0  0  0  0
 37 38  1  0  0  0  0
 39 38  1  1  0  0  0
 39 40  1  0  0  0  0
 39 44  1  0  0  0  0
 41 40  1  6  0  0  0
 41 42  1  0  0  0  0
 41 46  1  0  0  0  0
 43 42  1  1  0  0  0
 43 44  1  0  0  0  0
 43 45  1  0  0  0  0
M  END
> <NMREDATA_VERSION>
1.1

> <NMREDATA_LEVEL>
0

> <NMREDATA_SOLVENT>
CDCl3

> <NMREDATA_FORMULA>
C40H44F3N2OP

> <NMREDATA_SMILES>
O=C(Nc1ccccc1)Nc1ccc(cc1)c1ccc(cc1P([C@]12C[C@@H]3C[C@H](C2)C[C@H](C1)C3)[C@]12C[C@@H]3C[C@H](C2)C[C@H](C1)C3)C(F)(F)F

> <NMREDATA_ASSIGNMENT>
P26, 23.70, 26

> <NMREDATA_1D_31P>
Larmor=162
23.70, L=P26

$$$$
