
 OpenBabel06112616452D

 25 27  0  0  1  0  0  0  0  0999 V2000
   -2.4107   -1.7994    0.0000 C   0  0  0  0  0  0  0  0  0  0  0  0
   -1.9286   -2.6345    0.0000 C   0  0  0  0  0  0  0  0  0  0  0  0
   -3.3750   -1.7994    0.0000 C   0  0  0  0  0  0  0  0  0  0  0  0
   -3.8571   -0.9643    0.0000 C   0  0  0  0  0  0  0  0  0  0  0  0
   -3.3750   -0.1292    0.0000 C   0  0  0  0  0  0  0  0  0  0  0  0
   -2.4107   -0.1292    0.0000 C   0  0  0  0  0  0  0  0  0  0  0  0
   -1.9286   -0.9643    0.0000 C   0  0  0  0  0  0  0  0  0  0  0  0
    0.0000   -0.9643    0.0000 P   0  0  0  0  0  0  0  0  0  0  0  0
    0.0000   -1.9286    0.0000 O   0  0  0  0  0  0  0  0  0  0  0  0
    0.9643   -0.9643    0.0000 C   0  0  0  0  0  0  0  0  0  0  0  0
    1.4464   -0.1292    0.0000 C   0  0  0  0  0  0  0  0  0  0  0  0
    2.4107   -0.1292    0.0000 C   0  0  0  0  0  0  0  0  0  0  0  0
    2.8929   -0.9643    0.0000 C   0  0  0  0  0  0  0  0  0  0  0  0
    2.4107   -1.7994    0.0000 C   0  0  0  0  0  0  0  0  0  0  0  0
    1.4464   -1.7994    0.0000 C   0  0  0  0  0  0  0  0  0  0  0  0
    0.9643   -2.6345    0.0000 C   0  0  0  0  0  0  0  0  0  0  0  0
    0.0000    0.0000    0.0000 C   0  0  1  0  0  0  0  0  0  0  0  0
    0.8351    0.4821    0.0000 C   0  0  0  0  0  0  0  0  0  0  0  0
    0.8351    1.4464    0.0000 C   0  0  0  0  0  0  0  0  0  0  0  0
   -0.8351    0.4821    0.0000 C   0  0  0  0  0  0  0  0  0  0  0  0
   -1.6702    0.0000    0.0000 C   0  0  0  0  0  0  0  0  0  0  0  0
   -2.5053    0.4821    0.0000 C   0  0  0  0  0  0  0  0  0  0  0  0
   -2.5053    1.4464    0.0000 C   0  0  0  0  0  0  0  0  0  0  0  0
   -1.6702    1.9286    0.0000 C   0  0  0  0  0  0  0  0  0  0  0  0
   -0.8351    1.4464    0.0000 C   0  0  0  0  0  0  0  0  0  0  0  0
  1  7  2  0  0  0  0
  1  2  1  0  0  0  0
  1  3  1  0  0  0  0
  3  4  2  0  0  0  0
  4  5  1  0  0  0  0
  5  6  2  0  0  0  0
  6  7  1  0  0  0  0
  7  8  1  0  0  0  0
  8  9  2  0  0  0  0
  8 10  1  0  0  0  0
  8 17  1  0  0  0  0
 10 15  2  0  0  0  0
 10 11  1  0  0  0  0
 11 12  2  0  0  0  0
 12 13  1  0  0  0  0
 13 14  2  0  0  0  0
 14 15  1  0  0  0  0
 15 16  1  0  0  0  0
 17 18  1  6  0  0  0
 17 20  1  0  0  0  0
 18 19  2  0  0  0  0
 20 25  2  0  0  0  0
 20 21  1  0  0  0  0
 21 22  2  0  0  0  0
 22 23  1  0  0  0  0
 23 24  2  0  0  0  0
 24 25  1  0  0  0  0
M  END
> <NMREDATA_VERSION>
1.1

> <NMREDATA_LEVEL>
0

> <NMREDATA_SOLVENT>
CDCl3

> <NMREDATA_FORMULA>
C23H23OP

> <NMREDATA_SMILES>
C=C[C@H](P(=O)(c1ccccc1C)c1ccccc1C)c1ccccc1

> <NMREDATA_ASSIGNMENT>
P8, 34.30, 8

> <NMREDATA_1D_31P>
Larmor=162
34.30, L=P8

$$$$
