
 OpenBabel06112616452D

 28 30  0  0  1  0  0  0  0  0999 V2000
   -2.3846   -2.9032    0.0000 C    0  0  0  0  0  0  0  0  0  0  0  0
   -1.5465   -3.3871    0.0000 O    0  0  0  0  0  0  0  0  0  0  0  0
   -0.7084   -2.9032    0.0000 C    0  0  0  0  0  0  0  0  0  0  0  0
    0.1297   -3.3871    0.0000 O    0  0  0  0  0  0  0  0  0  0  0  0
   -0.7084   -1.9355    0.0000 C    0  0  0  0  0  0  0  0  0  0  0  0
   -1.5465   -1.4516    0.0000 C    0  0  0  0  0  0  0  0  0  0  0  0
    0.9677   -0.9677    0.0000 C    0  0  2  0  0  0  0  0  0  0  0  0
    1.8058   -1.4516    0.0000 C    0  0  0  0  0  0  0  0  0  0  0  0
    2.6439   -0.9677    0.0000 C    0  0  0  0  0  0  0  0  0  0  0  0
    3.4820   -1.4516    0.0000 C    0  0  0  0  0  0  0  0  0  0  0  0
    3.4820   -2.4194    0.0000 C    0  0  0  0  0  0  0  0  0  0  0  0
    4.3201   -2.9032    0.0000 Cl   0  0  0  0  0  0  0  0  0  0  0  0
    2.6439   -2.9032    0.0000 C    0  0  0  0  0  0  0  0  0  0  0  0
    1.8058   -2.4194    0.0000 C    0  0  0  0  0  0  0  0  0  0  0  0
    0.9677    0.0000    0.0000 P    0  0  0  0  0  0  0  0  0  0  0  0
    1.9355    0.0000    0.0000 O    0  0  0  0  0  0  0  0  0  0  0  0
    0.9677    0.9677    0.0000 C    0  0  0  0  0  0  0  0  0  0  0  0
    0.1297    1.4516    0.0000 C    0  0  0  0  0  0  0  0  0  0  0  0
    0.1297    2.4194    0.0000 C    0  0  0  0  0  0  0  0  0  0  0  0
    0.9677    2.9032    0.0000 C    0  0  0  0  0  0  0  0  0  0  0  0
    1.8058    2.4194    0.0000 C    0  0  0  0  0  0  0  0  0  0  0  0
    1.8058    1.4516    0.0000 C    0  0  0  0  0  0  0  0  0  0  0  0
    0.0000    0.0000    0.0000 C    0  0  0  0  0  0  0  0  0  0  0  0
   -0.4839   -0.8381    0.0000 C    0  0  0  0  0  0  0  0  0  0  0  0
   -1.4516   -0.8381    0.0000 C    0  0  0  0  0  0  0  0  0  0  0  0
   -1.9355    0.0000    0.0000 C    0  0  0  0  0  0  0  0  0  0  0  0
   -1.4516    0.8381    0.0000 C    0  0  0  0  0  0  0  0  0  0  0  0
   -0.4839    0.8381    0.0000 C    0  0  0  0  0  0  0  0  0  0  0  0
  1  2  1  0  0  0  0
  2  3  1  0  0  0  0
  3  4  2  0  0  0  0
  3  5  1  0  0  0  0
  5  6  2  0  0  0  0
  7  5  1  1  0  0  0
  7  8  1  0  0  0  0
  7 15  1  0  0  0  0
  8 14  2  0  0  0  0
  8  9  1  0  0  0  0
  9 10  2  0  0  0  0
 10 11  1  0  0  0  0
 11 12  1  0  0  0  0
 11 13  2  0  0  0  0
 13 14  1  0  0  0  0
 15 16  2  0  0  0  0
 15 17  1  0  0  0  0
 15 23  1  0  0  0  0
 17 22  2  0  0  0  0
 17 18  1  0  0  0  0
 18 19  2  0  0  0  0
 19 20  1  0  0  0  0
 20 21  2  0  0  0  0
 21 22  1  0  0  0  0
 23 28  2  0  0  0  0
 23 24  1  0  0  0  0
 24 25  2  0  0  0  0
 25 26  1  0  0  0  0
 26 27  2  0  0  0  0
 27 28  1  0  0  0  0
M  END
> <NMREDATA_VERSION>
1.1

> <NMREDATA_LEVEL>
0

> <NMREDATA_SOLVENT>
CDCl3

> <NMREDATA_FORMULA>
C23H20ClO3P

> <NMREDATA_SMILES>
COC(=O)C(=C)[C@@H](P(=O)(c1ccccc1)c1ccccc1)c1ccc(cc1)Cl

> <NMREDATA_ASSIGNMENT>
P15, 31.30, 15

> <NMREDATA_1D_31P>
Larmor=121
31.30, L=P15

$$$$
