
 OpenBabel06112616482D

 36 36  0  0  1  0  0  0  0  0999 V2000
   -2.5000   -0.1340    0.0000 C   0  0  0  0  0  0  0  0  0  0  0  0
   -1.5000   -0.1340    0.0000 C   0  0  3  0  0  0  0  0  0  0  0  0
   -1.0000   -1.0000    0.0000 S   0  0  0  0  0  0  0  0  0  0  0  0
    0.0000   -1.0000    0.0000 P   0  0  0  0  0  0  0  0  0  0  0  0
    0.0000   -2.0000    0.0000 O   0  0  0  0  0  0  0  0  0  0  0  0
    1.0000   -1.0000    0.0000 O   0  0  0  0  0  0  0  0  0  0  0  0
    1.5000   -1.8660    0.0000 C   0  0  0  0  0  0  0  0  0  0  0  0
    2.5000   -1.8660    0.0000 C   0  0  0  0  0  0  0  0  0  0  0  0
    0.0000    0.0000    0.0000 O   0  0  0  0  0  0  0  0  0  0  0  0
    0.8660    0.5000    0.0000 C   0  0  0  0  0  0  0  0  0  0  0  0
    1.7321    0.0000    0.0000 C   0  0  0  0  0  0  0  0  0  0  0  0
   -1.0000    0.7321    0.0000 C   0  0  0  0  0  0  0  0  0  0  0  0
   -1.5000    1.5981    0.0000 C   0  0  0  0  0  0  0  0  0  0  0  0
   -1.0000    2.4641    0.0000 C   0  0  0  0  0  0  0  0  0  0  0  0
    0.0000    2.4641    0.0000 C   0  0  0  0  0  0  0  0  0  0  0  0
    0.5000    1.5981    0.0000 C   0  0  0  0  0  0  0  0  0  0  0  0
    0.0000    0.7321    0.0000 C   0  0  0  0  0  0  0  0  0  0  0  0
   -3.0000   -1.0000    0.0000 C   0  0  0  0  0  0  0  0  0  0  0  0
   -3.0000   -2.0000    0.0000 F   0  0  0  0  0  0  0  0  0  0  0  0
   -2.1340   -1.5000    0.0000 F   0  0  0  0  0  0  0  0  0  0  0  0
   -4.0000   -1.0000    0.0000 C   0  0  0  0  0  0  0  0  0  0  0  0
   -4.8660   -0.5000    0.0000 F   0  0  0  0  0  0  0  0  0  0  0  0
   -4.0000    0.0000    0.0000 F   0  0  0  0  0  0  0  0  0  0  0  0
   -4.5000   -1.8660    0.0000 C   0  0  0  0  0  0  0  0  0  0  0  0
   -4.5000   -2.8660    0.0000 F   0  0  0  0  0  0  0  0  0  0  0  0
   -3.6340   -2.3660    0.0000 F   0  0  0  0  0  0  0  0  0  0  0  0
   -5.5000   -1.8660    0.0000 C   0  0  0  0  0  0  0  0  0  0  0  0
   -6.3660   -2.3660    0.0000 F   0  0  0  0  0  0  0  0  0  0  0  0
   -5.5000   -2.8660    0.0000 F   0  0  0  0  0  0  0  0  0  0  0  0
   -6.0000   -1.0000    0.0000 C   0  0  0  0  0  0  0  0  0  0  0  0
   -6.8660   -0.5000    0.0000 F   0  0  0  0  0  0  0  0  0  0  0  0
   -6.8660   -1.5000    0.0000 F   0  0  0  0  0  0  0  0  0  0  0  0
   -5.5000   -0.1340    0.0000 C   0  0  0  0  0  0  0  0  0  0  0  0
   -5.5000    0.8660    0.0000 F   0  0  0  0  0  0  0  0  0  0  0  0
   -6.3660    0.3660    0.0000 F   0  0  0  0  0  0  0  0  0  0  0  0
   -4.5000   -0.1340    0.0000 F   0  0  0  0  0  0  0  0  0  0  0  0
  1  2  1  0  0  0  0
  1 18  1  0  0  0  0
  2  3  1  0  0  0  0
  2 12  1  0  0  0  0
  3  4  1  0  0  0  0
  4  5  2  0  0  0  0
  4  6  1  0  0  0  0
  4  9  1  0  0  0  0
  6  7  1  0  0  0  0
  7  8  1  0  0  0  0
  9 10  1  0  0  0  0
 10 11  1  0  0  0  0
 12 17  2  0  0  0  0
 12 13  1  0  0  0  0
 13 14  2  0  0  0  0
 14 15  1  0  0  0  0
 15 16  2  0  0  0  0
 16 17  1  0  0  0  0
 18 19  1  0  0  0  0
 18 20  1  0  0  0  0
 18 21  1  0  0  0  0
 21 22  1  0  0  0  0
 21 23  1  0  0  0  0
 21 24  1  0  0  0  0
 24 25  1  0  0  0  0
 24 26  1  0  0  0  0
 24 27  1  0  0  0  0
 27 28  1  0  0  0  0
 27 29  1  0  0  0  0
 27 30  1  0  0  0  0
 30 31  1  0  0  0  0
 30 32  1  0  0  0  0
 30 33  1  0  0  0  0
 33 34  1  0  0  0  0
 33 35  1  0  0  0  0
 33 36  1  0  0  0  0
M  END
> <NMREDATA_VERSION>
1.1

> <NMREDATA_LEVEL>
0

> <NMREDATA_SOLVENT>
CDCl3

> <NMREDATA_FORMULA>
C18H18F13O3PS

> <NMREDATA_SMILES>
CCOP(=O)(SC(c1ccccc1)CC(C(C(C(C(C(F)(F)F)(F)F)(F)F)(F)F)(F)F)(F)F)OCC

> <NMREDATA_ASSIGNMENT>
P4, 23.69, 4

> <NMREDATA_1D_31P>
Larmor=243
23.69, L=P4

$$$$
