
 OpenBabel06112616482D

 29 31  0  0  1  0  0  0  0  0999 V2000
   -1.0000   -1.0000    0.0000 C   0  0  3  0  0  0  0  0  0  0  0  0
   -1.0000    0.0000    0.0000 C   0  0  0  0  0  0  0  0  0  0  0  0
   -1.0000    1.0000    0.0000 N   0  0  0  0  0  0  0  0  0  0  0  0
   -2.0000   -1.0000    0.0000 C   0  0  0  0  0  0  0  0  0  0  0  0
   -2.5000   -1.8660    0.0000 C   0  0  0  0  0  0  0  0  0  0  0  0
   -3.5000   -1.8660    0.0000 C   0  0  0  0  0  0  0  0  0  0  0  0
   -4.0000   -2.7321    0.0000 C   0  0  0  0  0  0  0  0  0  0  0  0
   -4.9945   -2.8366    0.0000 C   0  0  0  0  0  0  0  0  0  0  0  0
   -5.2024   -3.8147    0.0000 S   0  0  0  0  0  0  0  0  0  0  0  0
   -4.3364   -4.3147    0.0000 C   0  0  0  0  0  0  0  0  0  0  0  0
   -4.1285   -5.2929    0.0000 C   0  0  0  0  0  0  0  0  0  0  0  0
   -3.1774   -5.6019    0.0000 C   0  0  0  0  0  0  0  0  0  0  0  0
   -2.4343   -4.9328    0.0000 C   0  0  0  0  0  0  0  0  0  0  0  0
   -2.6422   -3.9546    0.0000 C   0  0  0  0  0  0  0  0  0  0  0  0
   -3.5933   -3.6456    0.0000 C   0  0  0  0  0  0  0  0  0  0  0  0
   -1.0000   -2.0000    0.0000 C   0  0  0  0  0  0  0  0  0  0  0  0
   -0.1340   -2.5000    0.0000 C   0  0  0  0  0  0  0  0  0  0  0  0
   -0.1340   -3.5000    0.0000 C   0  0  0  0  0  0  0  0  0  0  0  0
   -1.0000   -4.0000    0.0000 C   0  0  0  0  0  0  0  0  0  0  0  0
   -1.8660   -3.5000    0.0000 C   0  0  0  0  0  0  0  0  0  0  0  0
   -1.8660   -2.5000    0.0000 C   0  0  0  0  0  0  0  0  0  0  0  0
    0.0000   -1.0000    0.0000 P   0  0  0  0  0  0  0  0  0  0  0  0
    0.0000   -2.0000    0.0000 O   0  0  0  0  0  0  0  0  0  0  0  0
    1.0000   -1.0000    0.0000 O   0  0  0  0  0  0  0  0  0  0  0  0
    1.5000   -1.8660    0.0000 C   0  0  0  0  0  0  0  0  0  0  0  0
    2.5000   -1.8660    0.0000 C   0  0  0  0  0  0  0  0  0  0  0  0
    0.0000    0.0000    0.0000 O   0  0  0  0  0  0  0  0  0  0  0  0
    0.8660    0.5000    0.0000 C   0  0  0  0  0  0  0  0  0  0  0  0
    1.7321    0.0000    0.0000 C   0  0  0  0  0  0  0  0  0  0  0  0
  1  2  1  0  0  0  0
  1  4  1  0  0  0  0
  1 16  1  0  0  0  0
  1 22  1  0  0  0  0
  2  3  3  0  0  0  0
  4  5  1  0  0  0  0
  5  6  2  0  0  0  0
  6  7  1  0  0  0  0
  7 15  1  0  0  0  0
  7  8  2  0  0  0  0
  8  9  1  0  0  0  0
  9 10  1  0  0  0  0
 10 15  2  0  0  0  0
 10 11  1  0  0  0  0
 11 12  2  0  0  0  0
 12 13  1  0  0  0  0
 13 14  2  0  0  0  0
 14 15  1  0  0  0  0
 16 21  2  0  0  0  0
 16 17  1  0  0  0  0
 17 18  2  0  0  0  0
 18 19  1  0  0  0  0
 19 20  2  0  0  0  0
 20 21  1  0  0  0  0
 22 23  2  0  0  0  0
 22 24  1  0  0  0  0
 22 27  1  0  0  0  0
 24 25  1  0  0  0  0
 25 26  1  0  0  0  0
 27 28  1  0  0  0  0
 28 29  1  0  0  0  0
M  END
> <NMREDATA_VERSION>
1.1

> <NMREDATA_LEVEL>
0

> <NMREDATA_SOLVENT>
CDCl3

> <NMREDATA_FORMULA>
C23H24NO3PS

> <NMREDATA_SMILES>
CCOP(=O)(C(c1ccccc1)(C/C=C/c1csc2c1cccc2)C#N)OCC

> <NMREDATA_ASSIGNMENT>
P22, 17.40, 22

> <NMREDATA_1D_31P>
Larmor=162
17.40, L=P22

$$$$
