
 OpenBabel06112616462D

 31 36  0  0  0  0  0  0  0  0999 V2000
   -2.6935   -0.6407    0.0000 C   0  0  0  0  0  0  0  0  0  0  0  0
   -2.1057   -1.4497    0.0000 C   0  0  0  0  0  0  0  0  0  0  0  0
   -1.1546   -1.1407    0.0000 S   0  0  0  0  0  0  0  0  0  0  0  0
   -1.1546   -0.1407    0.0000 C   0  0  0  0  0  0  0  0  0  0  0  0
   -0.3456    0.4471    0.0000 C   0  0  0  0  0  0  0  0  0  0  0  0
    0.6055    0.1381    0.0000 C   0  0  0  0  0  0  0  0  0  0  0  0
    1.7321    0.0000    0.0000 P   0  0  0  0  0  0  0  0  0  0  0  0
    1.7321    1.0000    0.0000 O   0  0  0  0  0  0  0  0  0  0  0  0
    0.8660   -0.5000    0.0000 C   0  0  0  0  0  0  0  0  0  0  0  0
    0.8660   -1.5000    0.0000 C   0  0  0  0  0  0  0  0  0  0  0  0
    0.0000   -2.0000    0.0000 C   0  0  0  0  0  0  0  0  0  0  0  0
   -0.8660   -1.5000    0.0000 C   0  0  0  0  0  0  0  0  0  0  0  0
   -0.8660   -0.5000    0.0000 C   0  0  0  0  0  0  0  0  0  0  0  0
    0.0000    0.0000    0.0000 C   0  0  0  0  0  0  0  0  0  0  0  0
    2.5981   -0.5000    0.0000 C   0  0  0  0  0  0  0  0  0  0  0  0
    3.5762   -0.2921    0.0000 C   0  0  0  0  0  0  0  0  0  0  0  0
    4.2454   -1.0352    0.0000 C   0  0  0  0  0  0  0  0  0  0  0  0
    3.9363   -1.9863    0.0000 C   0  0  0  0  0  0  0  0  0  0  0  0
    2.9582   -2.1942    0.0000 C   0  0  0  0  0  0  0  0  0  0  0  0
    2.2891   -1.4511    0.0000 C   0  0  0  0  0  0  0  0  0  0  0  0
    1.1932    0.9471    0.0000 C   0  0  0  0  0  0  0  0  0  0  0  0
    0.6055    1.7561    0.0000 N   0  0  0  0  0  0  0  0  0  0  0  0
   -0.3456    1.4471    0.0000 C   0  0  0  0  0  0  0  0  0  0  0  0
   -0.9334    2.2561    0.0000 C   0  0  0  0  0  0  0  0  0  0  0  0
   -0.3456    3.0651    0.0000 C   0  0  0  0  0  0  0  0  0  0  0  0
   -0.5535    4.0433    0.0000 C   0  0  0  0  0  0  0  0  0  0  0  0
    0.1896    4.7124    0.0000 C   0  0  0  0  0  0  0  0  0  0  0  0
    1.1407    4.4034    0.0000 C   0  0  0  0  0  0  0  0  0  0  0  0
    1.3486    3.4252    0.0000 C   0  0  0  0  0  0  0  0  0  0  0  0
    0.6055    2.7561    0.0000 C   0  0  0  0  0  0  0  0  0  0  0  0
   -2.1057    0.1683    0.0000 C   0  0  0  0  0  0  0  0  0  0  0  0
  1 31  1  0  0  0  0
  1  2  2  0  0  0  0
  2  3  1  0  0  0  0
  3  4  1  0  0  0  0
  4  5  1  0  0  0  0
  4 31  2  0  0  0  0
  5 23  2  0  0  0  0
  5  6  1  0  0  0  0
  6  7  1  0  0  0  0
  6 21  2  0  0  0  0
  7  8  2  0  0  0  0
  7  9  1  0  0  0  0
  7 15  1  0  0  0  0
  9 14  2  0  0  0  0
  9 10  1  0  0  0  0
 10 11  2  0  0  0  0
 11 12  1  0  0  0  0
 12 13  2  0  0  0  0
 13 14  1  0  0  0  0
 15 20  2  0  0  0  0
 15 16  1  0  0  0  0
 16 17  2  0  0  0  0
 17 18  1  0  0  0  0
 18 19  2  0  0  0  0
 19 20  1  0  0  0  0
 21 22  1  0  0  0  0
 22 30  1  0  0  0  0
 22 23  1  0  0  0  0
 23 24  1  0  0  0  0
 24 25  1  0  0  0  0
 25 30  2  0  0  0  0
 25 26  1  0  0  0  0
 26 27  2  0  0  0  0
 27 28  1  0  0  0  0
 28 29  2  0  0  0  0
 29 30  1  0  0  0  0
M  END
> <NMREDATA_VERSION>
1.1

> <NMREDATA_LEVEL>
0

> <NMREDATA_SOLVENT>
CDCl3

> <NMREDATA_FORMULA>
C27H20NOPS

> <NMREDATA_SMILES>
O=P(c1cn2-c3ccccc3Cc2c1c1cccs1)(c1ccccc1)c1ccccc1

> <NMREDATA_ASSIGNMENT>
P7, 22.05, 7

> <NMREDATA_1D_31P>
Larmor=162
22.05, L=P7

$$$$
