
 OpenBabel06112616462D

 34 35  0  0  1  0  0  0  0  0999 V2000
   -2.2381    2.6771    0.0000 C    0  0  0  0  0  0  0  0  0  0  0  0
   -1.7652    1.8579    0.0000 C    0  0  0  0  0  0  0  0  0  0  0  0
   -0.8192    1.8579    0.0000 C    0  0  0  0  0  0  0  0  0  0  0  0
   -0.3462    1.0387    0.0000 C    0  0  0  0  0  0  0  0  0  0  0  0
   -0.8192    0.2195    0.0000 C    0  0  0  0  0  0  0  0  0  0  0  0
    0.1267   -1.4189    0.0000 C    0  0  3  0  0  0  0  0  0  0  0  0
   -1.5117   -2.3649    0.0000 C    0  0  0  0  0  0  0  0  0  0  0  0
   -1.5117   -3.3108    0.0000 C    0  0  0  0  0  0  0  0  0  0  0  0
   -0.6925   -3.7838    0.0000 Cl   0  0  0  0  0  0  0  0  0  0  0  0
   -2.3309   -3.7838    0.0000 C    0  0  0  0  0  0  0  0  0  0  0  0
   -3.1501   -3.3108    0.0000 C    0  0  0  0  0  0  0  0  0  0  0  0
   -3.9693   -3.7838    0.0000 N    0  3  0  0  0  0  0  0  0  0  0  0
   -4.7885   -3.3108    0.0000 O    0  5  0  0  0  0  0  0  0  0  0  0
   -3.9693   -4.7297    0.0000 O    0  0  0  0  0  0  0  0  0  0  0  0
   -3.1501   -2.3649    0.0000 C    0  0  0  0  0  0  0  0  0  0  0  0
   -2.3309   -1.8919    0.0000 C    0  0  0  0  0  0  0  0  0  0  0  0
    0.5997   -2.2381    0.0000 C    0  0  0  0  0  0  0  0  0  0  0  0
    0.1267   -3.0573    0.0000 O    0  0  0  0  0  0  0  0  0  0  0  0
    1.5457   -2.2381    0.0000 N    0  0  0  0  0  0  0  0  0  0  0  0
    2.0186   -3.0573    0.0000 C    0  0  0  0  0  0  0  0  0  0  0  0
    2.0186   -4.0033    0.0000 C    0  0  0  0  0  0  0  0  0  0  0  0
    1.1994   -3.5303    0.0000 C    0  0  0  0  0  0  0  0  0  0  0  0
    2.9646   -3.0573    0.0000 C    0  0  0  0  0  0  0  0  0  0  0  0
    0.9459   -0.9459    0.0000 O    0  0  0  0  0  0  0  0  0  0  0  0
    0.9459    0.0000    0.0000 P    0  0  0  0  0  0  0  0  0  0  0  0
    1.8919    0.0000    0.0000 O    0  0  0  0  0  0  0  0  0  0  0  0
    2.3649    0.8192    0.0000 C    0  0  0  0  0  0  0  0  0  0  0  0
    3.3108    0.8192    0.0000 C    0  0  0  0  0  0  0  0  0  0  0  0
    0.9459    0.9459    0.0000 O    0  0  0  0  0  0  0  0  0  0  0  0
    0.1267    1.4189    0.0000 C    0  0  0  0  0  0  0  0  0  0  0  0
    0.1267    2.3649    0.0000 C    0  0  0  0  0  0  0  0  0  0  0  0
    0.0000    0.0000    0.0000 O    0  0  0  0  0  0  0  0  0  0  0  0
   -1.7652    0.2195    0.0000 C    0  0  0  0  0  0  0  0  0  0  0  0
   -2.2381    1.0387    0.0000 C    0  0  0  0  0  0  0  0  0  0  0  0
  1  2  1  0  0  0  0
  2 34  2  0  0  0  0
  2  3  1  0  0  0  0
  3  4  2  0  0  0  0
  4  5  1  0  0  0  0
  5  6  1  0  0  0  0
  5 33  2  0  0  0  0
  6  7  1  0  0  0  0
  6 17  1  0  0  0  0
  6 24  1  0  0  0  0
  7 16  2  0  0  0  0
  7  8  1  0  0  0  0
  8  9  1  0  0  0  0
  8 10  2  0  0  0  0
 10 11  1  0  0  0  0
 11 12  1  0  0  0  0
 11 15  2  0  0  0  0
 12 13  1  0  0  0  0
 12 14  2  0  0  0  0
 15 16  1  0  0  0  0
 17 18  2  0  0  0  0
 17 19  1  0  0  0  0
 19 20  1  0  0  0  0
 20 21  1  0  0  0  0
 20 22  1  0  0  0  0
 20 23  1  0  0  0  0
 24 25  1  0  0  0  0
 25 26  1  0  0  0  0
 25 29  1  0  0  0  0
 25 32  2  0  0  0  0
 26 27  1  0  0  0  0
 27 28  1  0  0  0  0
 29 30  1  0  0  0  0
 30 31  1  0  0  0  0
 33 34  1  0  0  0  0
M  END
> <NMREDATA_VERSION>
1.1

> <NMREDATA_LEVEL>
0

> <NMREDATA_SOLVENT>
CDCl3

> <NMREDATA_FORMULA>
C23H30ClN2O7P

> <NMREDATA_SMILES>
CCOP(=O)(OC(c1ccc(cc1Cl)N(=O)O)(c1ccc(cc1)C)C(=O)NC(C)(C)C)OCC

> <NMREDATA_ASSIGNMENT>
P25, -6.10, 25

> <NMREDATA_1D_31P>
Larmor=162
-6.10, L=P25

$$$$
