
 OpenBabel06112616452D

 43 46  0  0  0  0  0  0  0  0999 V2000
   11.7232   -2.5000    0.0000 O   0  5  0  0  0  0  0  0  0  0  0  0
   11.7232   -1.5000    0.0000 S   0  0  0  0  0  0  0  0  0  0  0  0
   12.7232   -1.5000    0.0000 O   0  0  0  0  0  0  0  0  0  0  0  0
   11.7232   -0.5000    0.0000 O   0  0  0  0  0  0  0  0  0  0  0  0
   10.7232   -1.5000    0.0000 C   0  0  0  0  0  0  0  0  0  0  0  0
    9.8571   -2.0000    0.0000 F   0  0  0  0  0  0  0  0  0  0  0  0
   10.7232   -2.5000    0.0000 F   0  0  0  0  0  0  0  0  0  0  0  0
   10.2232   -0.6340    0.0000 F   0  0  0  0  0  0  0  0  0  0  0  0
    6.0714   -0.9310    0.0000 C   0  0  0  0  0  0  0  0  0  0  0  0
    6.8756   -1.3952    0.0000 C   0  0  0  0  0  0  0  0  0  0  0  0
    6.8756   -2.3238    0.0000 C   0  0  0  0  0  0  0  0  0  0  0  0
    6.0714   -2.7881    0.0000 C   0  0  0  0  0  0  0  0  0  0  0  0
    6.0714   -3.7167    0.0000 P   0  3  0  0  0  0  0  0  0  0  0  0
    7.0000   -3.7167    0.0000 C   0  0  0  0  0  0  0  0  0  0  0  0
    7.4643   -4.5208    0.0000 C   0  0  0  0  0  0  0  0  0  0  0  0
    8.3929   -4.5208    0.0000 C   0  0  0  0  0  0  0  0  0  0  0  0
    8.8571   -3.7167    0.0000 C   0  0  0  0  0  0  0  0  0  0  0  0
    8.3929   -2.9125    0.0000 C   0  0  0  0  0  0  0  0  0  0  0  0
    7.4643   -2.9125    0.0000 C   0  0  0  0  0  0  0  0  0  0  0  0
    6.0714   -4.6452    0.0000 C   0  0  0  0  0  0  0  0  0  0  0  0
    5.2673   -5.1095    0.0000 C   0  0  0  0  0  0  0  0  0  0  0  0
    5.2673   -6.0381    0.0000 N   0  0  0  0  0  0  0  0  0  0  0  0
    6.0714   -6.5024    0.0000 C   0  0  0  0  0  0  0  0  0  0  0  0
    6.0714   -7.4310    0.0000 C   0  0  0  0  0  0  0  0  0  0  0  0
    5.6071   -8.2351    0.0000 F   0  0  0  0  0  0  0  0  0  0  0  0
    5.1429   -7.4310    0.0000 F   0  0  0  0  0  0  0  0  0  0  0  0
    6.8756   -7.8952    0.0000 F   0  0  0  0  0  0  0  0  0  0  0  0
    6.8756   -6.0381    0.0000 C   0  0  0  0  0  0  0  0  0  0  0  0
    6.8756   -5.1095    0.0000 C   0  0  0  0  0  0  0  0  0  0  0  0
    2.3571   -3.7167    0.0000 C   0  0  0  0  0  0  0  0  0  0  0  0
    1.8929   -2.9125    0.0000 C   0  0  0  0  0  0  0  0  0  0  0  0
    2.3571   -2.1083    0.0000 C   0  0  0  0  0  0  0  0  0  0  0  0
    3.2857   -2.1083    0.0000 C   0  0  0  0  0  0  0  0  0  0  0  0
    3.7500   -1.3042    0.0000 C   0  0  0  0  0  0  0  0  0  0  0  0
    3.2857   -0.5000    0.0000 C   0  0  0  0  0  0  0  0  0  0  0  0
    2.3571   -0.5000    0.0000 C   0  0  0  0  0  0  0  0  0  0  0  0
    1.8929   -1.3042    0.0000 C   0  0  0  0  0  0  0  0  0  0  0  0
    0.9643   -2.9125    0.0000 C   0  0  0  0  0  0  0  0  0  0  0  0
    0.5000   -3.7167    0.0000 N   0  0  0  0  0  0  0  0  0  0  0  0
    0.9643   -4.5208    0.0000 C   0  0  0  0  0  0  0  0  0  0  0  0
    1.8929   -4.5208    0.0000 C   0  0  0  0  0  0  0  0  0  0  0  0
    5.2673   -2.3238    0.0000 C   0  0  0  0  0  0  0  0  0  0  0  0
    5.2673   -1.3952    0.0000 C   0  0  0  0  0  0  0  0  0  0  0  0
  1  2  1  0  0  0  0
  2  3  2  0  0  0  0
  2  4  2  0  0  0  0
  2  5  1  0  0  0  0
  5  6  1  0  0  0  0
  5  7  1  0  0  0  0
  5  8  1  0  0  0  0
  9 43  2  0  0  0  0
  9 10  1  0  0  0  0
 10 11  2  0  0  0  0
 11 12  1  0  0  0  0
 12 13  1  0  0  0  0
 12 42  2  0  0  0  0
 13 14  1  0  0  0  0
 13 20  1  0  0  0  0
 13 30  1  0  0  0  0
 14 19  2  0  0  0  0
 14 15  1  0  0  0  0
 15 16  2  0  0  0  0
 16 17  1  0  0  0  0
 17 18  2  0  0  0  0
 18 19  1  0  0  0  0
 20 29  2  0  0  0  0
 20 21  1  0  0  0  0
 21 22  2  0  0  0  0
 22 23  1  0  0  0  0
 23 24  1  0  0  0  0
 23 28  2  0  0  0  0
 24 25  1  0  0  0  0
 24 26  1  0  0  0  0
 24 27  1  0  0  0  0
 28 29  1  0  0  0  0
 30 41  2  0  0  0  0
 30 31  1  0  0  0  0
 31 32  1  0  0  0  0
 31 38  2  0  0  0  0
 32 37  2  0  0  0  0
 32 33  1  0  0  0  0
 33 34  2  0  0  0  0
 34 35  1  0  0  0  0
 35 36  2  0  0  0  0
 36 37  1  0  0  0  0
 38 39  1  0  0  0  0
 39 40  2  0  0  0  0
 40 41  1  0  0  0  0
 42 43  1  0  0  0  0
M  END
> <NMREDATA_VERSION>
1.1

> <NMREDATA_LEVEL>
0

> <NMREDATA_SOLVENT>
CDCl3

> <NMREDATA_FORMULA>
C30H21F6N2O3PS

> <NMREDATA_SMILES>
FC(S(=O)(=O)[O-])(F)F.FC(c1ccc(cn1)[P+](c1ccncc1c1ccccc1)(c1ccccc1)c1ccccc1)(F)F

> <NMREDATA_ASSIGNMENT>
P13, 19.31, 13

> <NMREDATA_1D_31P>
Larmor=162
19.31, L=P13

$$$$
