
 OpenBabel06112616452D

 40 43  0  0  1  0  0  0  0  0999 V2000
   -8.9635    0.3217    0.0000 C   0  0  0  0  0  0  0  0  0  0  0  0
   -7.9690    0.4262    0.0000 O   0  0  0  0  0  0  0  0  0  0  0  0
   -7.3812   -0.3828    0.0000 C   0  0  0  0  0  0  0  0  0  0  0  0
   -7.7880   -1.2963    0.0000 N   0  0  0  0  0  0  0  0  0  0  0  0
   -7.2002   -2.1053    0.0000 C   0  0  0  0  0  0  0  0  0  0  0  0
   -7.6069   -3.0189    0.0000 N   0  0  0  0  0  0  0  0  0  0  0  0
   -6.2057   -2.0008    0.0000 N   0  0  0  0  0  0  0  0  0  0  0  0
   -5.7989   -1.0873    0.0000 C   0  0  0  0  0  0  0  0  0  0  0  0
   -6.3867   -0.2782    0.0000 C   0  0  0  0  0  0  0  0  0  0  0  0
   -5.7989    0.5308    0.0000 N   0  0  0  0  0  0  0  0  0  0  0  0
   -4.8479    0.2218    0.0000 C   0  0  0  0  0  0  0  0  0  0  0  0
   -4.8479   -0.7782    0.0000 N   0  0  0  0  0  0  0  0  0  0  0  0
   -4.0388   -1.3660    0.0000 C   0  0  2  0  0  0  0  0  0  0  0  0
   -3.0878   -1.0570    0.0000 O   0  0  0  0  0  0  0  0  0  0  0  0
   -2.5000   -1.8660    0.0000 C   0  0  2  0  0  0  0  0  0  0  0  0
   -1.5000   -1.8660    0.0000 C   0  0  0  0  0  0  0  0  0  0  0  0
   -1.0000   -1.0000    0.0000 O   0  0  0  0  0  0  0  0  0  0  0  0
    0.0000   -1.0000    0.0000 P   0  0  1  0  0  0  0  0  0  0  0  0
    0.0000   -2.0000    0.0000 O   0  0  0  0  0  0  0  0  0  0  0  0
    1.0000   -1.0000    0.0000 N   0  0  0  0  0  0  0  0  0  0  0  0
    1.5000   -1.8660    0.0000 C   0  0  1  0  0  0  0  0  0  0  0  0
    1.0000   -2.7321    0.0000 C   0  0  0  0  0  0  0  0  0  0  0  0
    2.5000   -1.8660    0.0000 C   0  0  0  0  0  0  0  0  0  0  0  0
    3.0000   -2.7321    0.0000 O   0  0  0  0  0  0  0  0  0  0  0  0
    3.0000   -1.0000    0.0000 O   0  0  0  0  0  0  0  0  0  0  0  0
    4.0000   -1.0000    0.0000 C   0  0  0  0  0  0  0  0  0  0  0  0
    4.5000   -1.8660    0.0000 C   0  0  0  0  0  0  0  0  0  0  0  0
    4.5000   -0.1340    0.0000 C   0  0  0  0  0  0  0  0  0  0  0  0
    0.0000    0.0000    0.0000 O   0  0  0  0  0  0  0  0  0  0  0  0
    0.8660    0.5000    0.0000 C   0  0  0  0  0  0  0  0  0  0  0  0
    0.8660    1.5000    0.0000 C   0  0  0  0  0  0  0  0  0  0  0  0
    1.7321    2.0000    0.0000 C   0  0  0  0  0  0  0  0  0  0  0  0
    2.5981    1.5000    0.0000 C   0  0  0  0  0  0  0  0  0  0  0  0
    2.5981    0.5000    0.0000 C   0  0  0  0  0  0  0  0  0  0  0  0
    1.7321    0.0000    0.0000 C   0  0  0  0  0  0  0  0  0  0  0  0
   -3.0878   -2.6750    0.0000 C   0  0  1  0  0  0  0  0  0  0  0  0
   -2.7788   -3.6261    0.0000 O   0  0  0  0  0  0  0  0  0  0  0  0
   -4.0388   -2.3660    0.0000 C   0  0  2  0  0  0  0  0  0  0  0  0
   -5.0334   -2.4706    0.0000 C   0  0  0  0  0  0  0  0  0  0  0  0
   -4.4456   -3.2796    0.0000 F   0  0  0  0  0  0  0  0  0  0  0  0
  1  2  1  0  0  0  0
  2  3  1  0  0  0  0
  3  9  2  0  0  0  0
  3  4  1  0  0  0  0
  4  5  2  0  0  0  0
  5  6  1  0  0  0  0
  5  7  1  0  0  0  0
  7  8  2  0  0  0  0
  8 12  1  0  0  0  0
  8  9  1  0  0  0  0
  9 10  1  0  0  0  0
 10 11  2  0  0  0  0
 11 12  1  0  0  0  0
 13 12  1  6  0  0  0
 13 14  1  0  0  0  0
 13 38  1  0  0  0  0
 14 15  1  0  0  0  0
 15 16  1  6  0  0  0
 15 36  1  0  0  0  0
 16 17  1  0  0  0  0
 17 18  1  0  0  0  0
 18 19  2  1  0  0  0
 18 20  1  0  0  0  0
 18 29  1  0  0  0  0
 20 21  1  0  0  0  0
 21 22  1  6  0  0  0
 21 23  1  0  0  0  0
 23 24  2  0  0  0  0
 23 25  1  0  0  0  0
 25 26  1  0  0  0  0
 26 27  1  0  0  0  0
 26 28  1  0  0  0  0
 29 30  1  0  0  0  0
 30 35  2  0  0  0  0
 30 31  1  0  0  0  0
 31 32  2  0  0  0  0
 32 33  1  0  0  0  0
 33 34  2  0  0  0  0
 34 35  1  0  0  0  0
 36 37  1  1  0  0  0
 36 38  1  0  0  0  0
 38 39  1  6  0  0  0
 38 40  1  0  0  0  0
M  END
> <NMREDATA_VERSION>
1.1

> <NMREDATA_LEVEL>
0

> <NMREDATA_SOLVENT>
DMSO-d6

> <NMREDATA_FORMULA>
C24H32FN6O8P

> <NMREDATA_SMILES>
COc1nc(N)nc2c1ncn2[C@@H]1O[C@@H]([C@H]([C@@]1(C)F)O)CO[P@@](=O)(N[C@H](C(=O)OC(C)C)C)Oc1ccccc1

> <NMREDATA_ASSIGNMENT>
P18, 3.82, 18

> <NMREDATA_1D_31P>
Larmor=not_known
3.82, L=P18

$$$$
