
 OpenBabel06112616442D

 28 28  0  0  1  0  0  0  0  0999 V2000
   -3.0546   -0.7459    0.0000 C   0  0  0  0  0  0  0  0  0  0  0  0
   -3.9990   -0.5452    0.0000 C   0  0  0  0  0  0  0  0  0  0  0  0
   -4.2973    0.3731    0.0000 O   0  0  0  0  0  0  0  0  0  0  0  0
   -4.6450   -1.2627    0.0000 O   0  0  0  0  0  0  0  0  0  0  0  0
   -5.5895   -1.0620    0.0000 C   0  0  0  0  0  0  0  0  0  0  0  0
   -5.8878   -0.1437    0.0000 C   0  0  0  0  0  0  0  0  0  0  0  0
   -2.4085   -0.0284    0.0000 C   0  0  1  0  0  0  0  0  0  0  0  0
   -2.6092    0.9160    0.0000 C   0  0  0  0  0  0  0  0  0  0  0  0
   -1.7731    1.3987    0.0000 C   0  0  0  0  0  0  0  0  0  0  0  0
   -0.6381    2.9610    0.0000 C   0  0  0  0  0  0  0  0  0  0  0  0
   -1.0308    3.8430    0.0000 O   0  0  0  0  0  0  0  0  0  0  0  0
    0.3222    2.8601    0.0000 O   0  0  0  0  0  0  0  0  0  0  0  0
    0.8897    3.6412    0.0000 C   0  0  0  0  0  0  0  0  0  0  0  0
   -2.1658    2.2808    0.0000 C   0  0  0  0  0  0  0  0  0  0  0  0
   -1.5983    3.0619    0.0000 O   0  0  0  0  0  0  0  0  0  0  0  0
   -3.1260    2.3817    0.0000 O   0  0  0  0  0  0  0  0  0  0  0  0
   -3.5187    3.2638    0.0000 C   0  0  0  0  0  0  0  0  0  0  0  0
   -1.0556    0.7527    0.0000 C   0  0  0  0  0  0  0  0  0  0  0  0
   -1.4483   -0.1294    0.0000 C   0  0  0  0  0  0  0  0  0  0  0  0
   -0.9655   -0.9655    0.0000 C   0  0  0  0  0  0  0  0  0  0  0  0
    0.0000   -0.9655    0.0000 P   0  0  0  0  0  0  0  0  0  0  0  0
    0.0000   -1.9310    0.0000 O   0  0  0  0  0  0  0  0  0  0  0  0
    0.9655   -0.9655    0.0000 O   0  0  0  0  0  0  0  0  0  0  0  0
    1.4483   -1.8017    0.0000 C   0  0  0  0  0  0  0  0  0  0  0  0
    2.4138   -1.8017    0.0000 C   0  0  0  0  0  0  0  0  0  0  0  0
    0.0000    0.0000    0.0000 O   0  0  0  0  0  0  0  0  0  0  0  0
    0.8362    0.4828    0.0000 C   0  0  0  0  0  0  0  0  0  0  0  0
    1.6723    0.0000    0.0000 C   0  0  0  0  0  0  0  0  0  0  0  0
  1  2  1  0  0  0  0
  2  3  2  0  0  0  0
  2  4  1  0  0  0  0
  4  5  1  0  0  0  0
  5  6  1  0  0  0  0
  7  1  1  1  0  0  0
  7  8  1  0  0  0  0
  7 19  1  0  0  0  0
  8  9  1  0  0  0  0
  9 10  1  0  0  0  0
  9 14  1  0  0  0  0
  9 18  1  0  0  0  0
 10 11  2  0  0  0  0
 10 12  1  0  0  0  0
 12 13  1  0  0  0  0
 14 15  2  0  0  0  0
 14 16  1  0  0  0  0
 16 17  1  0  0  0  0
 18 19  1  0  0  0  0
 19 20  2  0  0  0  0
 20 21  1  0  0  0  0
 21 22  2  0  0  0  0
 21 23  1  0  0  0  0
 21 26  1  0  0  0  0
 23 24  1  0  0  0  0
 24 25  1  0  0  0  0
 26 27  1  0  0  0  0
 27 28  1  0  0  0  0
M  END
> <NMREDATA_VERSION>
1.1

> <NMREDATA_LEVEL>
0

> <NMREDATA_SOLVENT>
CDCl3

> <NMREDATA_FORMULA>
C18H29O9P

> <NMREDATA_SMILES>
CCOC(=O)C[C@H]1CC(C/C/1=C\P(=O)(OCC)OCC)(C(=O)OC)C(=O)OC

> <NMREDATA_ASSIGNMENT>
P21, 17.00, 21

> <NMREDATA_1D_31P>
Larmor=162
17.00, L=P21

$$$$
