
 OpenBabel06112616482D

 37 41  0  0  1  0  0  0  0  0999 V2000
   -0.6218    0.5599    0.0000 C   0  0  0  0  0  0  0  0  0  0  0  0
   -1.4176    0.3013    0.0000 C   0  0  2  0  0  0  0  0  0  0  0  0
   -1.6762   -0.4945    0.0000 C   0  0  0  0  0  0  0  0  0  0  0  0
   -2.5129   -0.4945    0.0000 C   0  0  0  0  0  0  0  0  0  0  0  0
   -2.7715    0.3013    0.0000 C   0  0  1  0  0  0  0  0  0  0  0  0
   -3.5672    0.5599    0.0000 C   0  0  0  0  0  0  0  0  0  0  0  0
   -4.1891    0.0000    0.0000 C   0  0  0  0  0  0  0  0  0  0  0  0
   -4.9848    0.2586    0.0000 C   0  0  0  0  0  0  0  0  0  0  0  0
   -5.1588    1.0770    0.0000 C   0  0  0  0  0  0  0  0  0  0  0  0
   -4.5370    1.6369    0.0000 C   0  0  0  0  0  0  0  0  0  0  0  0
   -3.7412    1.3783    0.0000 C   0  0  0  0  0  0  0  0  0  0  0  0
   -2.0945    0.7931    0.0000 P   0  0  3  0  0  0  0  0  0  0  0  0
   -2.0945    2.4666    0.0000 C   0  0  0  0  0  0  0  0  0  0  0  0
   -2.8192    2.8850    0.0000 C   0  0  0  0  0  0  0  0  0  0  0  0
   -2.8192    3.7217    0.0000 C   0  0  0  0  0  0  0  0  0  0  0  0
   -2.0945    4.1401    0.0000 C   0  0  0  0  0  0  0  0  0  0  0  0
   -1.3699    3.7217    0.0000 C   0  0  0  0  0  0  0  0  0  0  0  0
   -1.3699    2.8850    0.0000 C   0  0  0  0  0  0  0  0  0  0  0  0
    4.4272   -0.4620    0.0000 C   0  0  0  0  0  0  0  0  0  0  0  0
    5.1518   -0.0436    0.0000 C   0  0  0  0  0  0  0  0  0  0  0  0
    5.1518    0.7931    0.0000 O   0  0  0  0  0  0  0  0  0  0  0  0
    5.8764    1.2115    0.0000 C   0  0  0  0  0  0  0  0  0  0  0  0
    6.6011    0.7931    0.0000 C   0  0  0  0  0  0  0  0  0  0  0  0
    5.8764    2.0482    0.0000 C   0  0  0  0  0  0  0  0  0  0  0  0
    5.8764   -0.4620    0.0000 C   0  0  0  0  0  0  0  0  0  0  0  0
    5.8764   -1.2987    0.0000 C   0  0  0  0  0  0  0  0  0  0  0  0
    5.1518   -1.7171    0.0000 C   0  0  0  0  0  0  0  0  0  0  0  0
    4.4272   -1.2987    0.0000 C   0  0  0  0  0  0  0  0  0  0  0  0
    3.7025   -1.7171    0.0000 O   0  0  0  0  0  0  0  0  0  0  0  0
    3.7025   -2.5538    0.0000 C   0  0  0  0  0  0  0  0  0  0  0  0
    2.9779   -2.9722    0.0000 C   0  0  0  0  0  0  0  0  0  0  0  0
    4.4272   -2.9722    0.0000 C   0  0  0  0  0  0  0  0  0  0  0  0
   -0.4478    1.3783    0.0000 C   0  0  0  0  0  0  0  0  0  0  0  0
    0.3479    1.6369    0.0000 C   0  0  0  0  0  0  0  0  0  0  0  0
    0.9697    1.0770    0.0000 C   0  0  0  0  0  0  0  0  0  0  0  0
    0.7958    0.2586    0.0000 C   0  0  0  0  0  0  0  0  0  0  0  0
    0.0000    0.0000    0.0000 C   0  0  0  0  0  0  0  0  0  0  0  0
  1 37  2  0  0  0  0
  1 33  1  0  0  0  0
  2  1  1  6  0  0  0
  2  3  1  0  0  0  0
  2 12  1  0  0  0  0
  3  4  1  0  0  0  0
  4  5  1  0  0  0  0
  5  6  1  1  0  0  0
  5 12  1  0  0  0  0
  6 11  2  0  0  0  0
  6  7  1  0  0  0  0
  7  8  2  0  0  0  0
  8  9  1  0  0  0  0
  9 10  2  0  0  0  0
 10 11  1  0  0  0  0
 12 13  1  0  0  0  0
 13 18  2  0  0  0  0
 13 14  1  0  0  0  0
 14 15  2  0  0  0  0
 15 16  1  0  0  0  0
 16 17  2  0  0  0  0
 17 18  1  0  0  0  0
 18 19  1  0  0  0  0
 19 28  2  0  0  0  0
 19 20  1  0  0  0  0
 20 21  1  0  0  0  0
 20 25  2  0  0  0  0
 21 22  1  0  0  0  0
 22 23  1  0  0  0  0
 22 24  1  0  0  0  0
 25 26  1  0  0  0  0
 26 27  2  0  0  0  0
 27 28  1  0  0  0  0
 28 29  1  0  0  0  0
 29 30  1  0  0  0  0
 30 31  1  0  0  0  0
 30 32  1  0  0  0  0
 33 34  2  0  0  0  0
 34 35  1  0  0  0  0
 35 36  2  0  0  0  0
 36 37  1  0  0  0  0
M  END
> <NMREDATA_VERSION>
1.1

> <NMREDATA_LEVEL>
0

> <NMREDATA_SOLVENT>
CDCl3

> <NMREDATA_FORMULA>
C34H37O2P

> <NMREDATA_SMILES>
CC(Oc1cccc(c1c1ccccc1P1[C@@H](CC[C@H]1c1ccccc1)c1ccccc1)OC(C)C)C

> <NMREDATA_ASSIGNMENT>
P12, 8.20, 12

> <NMREDATA_1D_31P>
Larmor=162
8.20, L=P12

$$$$
