
 OpenBabel06112616472D

 64 73  0  0  0  0  0  0  0  0999 V2000
    1.6637    0.0000    0.0000 C   0  0  0  0  0  0  0  0  0  0  0  0
    0.8318    0.4803    0.0000 C   0  0  0  0  0  0  0  0  0  0  0  0
    0.8318    1.4408    0.0000 C   0  0  0  0  0  0  0  0  0  0  0  0
    0.0000    1.9211    0.0000 C   0  0  0  0  0  0  0  0  0  0  0  0
    0.0000    2.8816    0.0000 C   0  0  0  0  0  0  0  0  0  0  0  0
   -0.8318    1.4408    0.0000 C   0  0  0  0  0  0  0  0  0  0  0  0
   -1.6637    1.9211    0.0000 C   0  0  0  0  0  0  0  0  0  0  0  0
   -1.6637    2.8816    0.0000 C   0  0  0  0  0  0  0  0  0  0  0  0
   -2.4955    3.3618    0.0000 C   0  0  0  0  0  0  0  0  0  0  0  0
   -3.3274    2.8816    0.0000 C   0  0  0  0  0  0  0  0  0  0  0  0
   -4.1592    3.3618    0.0000 C   0  0  0  0  0  0  0  0  0  0  0  0
   -4.1592    4.3224    0.0000 C   0  0  0  0  0  0  0  0  0  0  0  0
   -3.3274    4.8026    0.0000 C   0  0  0  0  0  0  0  0  0  0  0  0
   -2.4955    4.3224    0.0000 C   0  0  0  0  0  0  0  0  0  0  0  0
   -4.9910    4.8026    0.0000 P   0  0  0  0  0  0  0  0  0  0  0  0
   -4.9910    5.7632    0.0000 C   0  0  0  0  0  0  0  0  0  0  0  0
   -5.8229    6.2434    0.0000 C   0  0  0  0  0  0  0  0  0  0  0  0
   -5.8229    7.2039    0.0000 C   0  0  0  0  0  0  0  0  0  0  0  0
   -4.9910    7.6842    0.0000 C   0  0  0  0  0  0  0  0  0  0  0  0
   -4.1592    7.2039    0.0000 C   0  0  0  0  0  0  0  0  0  0  0  0
   -4.1592    6.2434    0.0000 C   0  0  0  0  0  0  0  0  0  0  0  0
   -5.8229    4.3224    0.0000 C   0  0  0  0  0  0  0  0  0  0  0  0
   -5.8229    3.3618    0.0000 C   0  0  0  0  0  0  0  0  0  0  0  0
   -6.6547    2.8816    0.0000 C   0  0  0  0  0  0  0  0  0  0  0  0
   -7.4866    3.3618    0.0000 C   0  0  0  0  0  0  0  0  0  0  0  0
   -7.4866    4.3224    0.0000 C   0  0  0  0  0  0  0  0  0  0  0  0
   -6.6547    4.8026    0.0000 C   0  0  0  0  0  0  0  0  0  0  0  0
   -7.4866    1.4408    0.0000 C   0  0  0  0  0  0  0  0  0  0  0  0
   -8.3184    1.9211    0.0000 C   0  0  0  0  0  0  0  0  0  0  0  0
   -9.1502    1.4408    0.0000 C   0  0  0  0  0  0  0  0  0  0  0  0
   -9.9821    1.9211    0.0000 C   0  0  0  0  0  0  0  0  0  0  0  0
   -9.9821    2.8816    0.0000 C   0  0  0  0  0  0  0  0  0  0  0  0
   -9.1502    3.3618    0.0000 C   0  0  0  0  0  0  0  0  0  0  0  0
   -8.3184    2.8816    0.0000 C   0  0  0  0  0  0  0  0  0  0  0  0
  -10.8139    3.3618    0.0000 C   0  0  0  0  0  0  0  0  0  0  0  0
  -10.8139    4.3224    0.0000 C   0  0  0  0  0  0  0  0  0  0  0  0
   -9.9821    4.8026    0.0000 C   0  0  0  0  0  0  0  0  0  0  0  0
  -11.6458    4.8026    0.0000 C   0  0  0  0  0  0  0  0  0  0  0  0
  -12.4776    4.3224    0.0000 C   0  0  0  0  0  0  0  0  0  0  0  0
  -13.3094    4.8026    0.0000 C   0  0  0  0  0  0  0  0  0  0  0  0
  -12.4776    3.3618    0.0000 C   0  0  0  0  0  0  0  0  0  0  0  0
  -11.6458    2.8816    0.0000 C   0  0  0  0  0  0  0  0  0  0  0  0
  -11.6458    1.9211    0.0000 C   0  0  0  0  0  0  0  0  0  0  0  0
   -9.1502    0.4803    0.0000 C   0  0  0  0  0  0  0  0  0  0  0  0
   -8.3184    0.0000    0.0000 C   0  0  0  0  0  0  0  0  0  0  0  0
   -7.4866    0.4803    0.0000 C   0  0  0  0  0  0  0  0  0  0  0  0
   -6.6547    0.0000    0.0000 P   0  0  0  0  0  0  0  0  0  0  0  0
   -5.8229    0.4803    0.0000 C   0  0  0  0  0  0  0  0  0  0  0  0
   -4.9910    0.0000    0.0000 C   0  0  0  0  0  0  0  0  0  0  0  0
   -4.1592    0.4803    0.0000 C   0  0  0  0  0  0  0  0  0  0  0  0
   -4.1592    1.4408    0.0000 C   0  0  0  0  0  0  0  0  0  0  0  0
   -4.9910    1.9211    0.0000 C   0  0  0  0  0  0  0  0  0  0  0  0
   -5.8229    1.4408    0.0000 C   0  0  0  0  0  0  0  0  0  0  0  0
   -6.6547   -0.9605    0.0000 C   0  0  0  0  0  0  0  0  0  0  0  0
   -7.4866   -1.4408    0.0000 C   0  0  0  0  0  0  0  0  0  0  0  0
   -7.4866   -2.4013    0.0000 C   0  0  0  0  0  0  0  0  0  0  0  0
   -6.6547   -2.8816    0.0000 C   0  0  0  0  0  0  0  0  0  0  0  0
   -5.8229   -2.4013    0.0000 C   0  0  0  0  0  0  0  0  0  0  0  0
   -5.8229   -1.4408    0.0000 C   0  0  0  0  0  0  0  0  0  0  0  0
   -3.3274    1.9211    0.0000 C   0  0  0  0  0  0  0  0  0  0  0  0
   -2.4955    1.4408    0.0000 C   0  0  0  0  0  0  0  0  0  0  0  0
   -0.8318    0.4803    0.0000 C   0  0  0  0  0  0  0  0  0  0  0  0
   -1.6637    0.0000    0.0000 C   0  0  0  0  0  0  0  0  0  0  0  0
    0.0000    0.0000    0.0000 C   0  0  0  0  0  0  0  0  0  0  0  0
  1  2  1  0  0  0  0
  2 64  2  0  0  0  0
  2  3  1  0  0  0  0
  3  4  2  0  0  0  0
  4  5  1  0  0  0  0
  4  6  1  0  0  0  0
  6  7  1  0  0  0  0
  6 62  2  0  0  0  0
  7 61  2  0  0  0  0
  7  8  1  0  0  0  0
  8  9  2  0  0  0  0
  9 14  1  0  0  0  0
  9 10  1  0  0  0  0
 10 11  1  0  0  0  0
 10 60  2  0  0  0  0
 11 12  2  0  0  0  0
 11 28  1  0  0  0  0
 12 13  1  0  0  0  0
 12 15  1  0  0  0  0
 13 14  2  0  0  0  0
 15 16  1  0  0  0  0
 15 22  1  0  0  0  0
 16 21  2  0  0  0  0
 16 17  1  0  0  0  0
 17 18  2  0  0  0  0
 18 19  1  0  0  0  0
 19 20  2  0  0  0  0
 20 21  1  0  0  0  0
 22 27  2  0  0  0  0
 22 23  1  0  0  0  0
 23 24  2  0  0  0  0
 24 25  1  0  0  0  0
 25 26  2  0  0  0  0
 26 27  1  0  0  0  0
 28 46  2  0  0  0  0
 28 29  1  0  0  0  0
 29 34  2  0  0  0  0
 29 30  1  0  0  0  0
 30 31  2  0  0  0  0
 30 44  1  0  0  0  0
 31 32  1  0  0  0  0
 32 33  2  0  0  0  0
 32 35  1  0  0  0  0
 33 34  1  0  0  0  0
 35 42  2  0  0  0  0
 35 36  1  0  0  0  0
 36 37  1  0  0  0  0
 36 38  2  0  0  0  0
 38 39  1  0  0  0  0
 39 40  1  0  0  0  0
 39 41  2  0  0  0  0
 41 42  1  0  0  0  0
 42 43  1  0  0  0  0
 44 45  2  0  0  0  0
 45 46  1  0  0  0  0
 46 47  1  0  0  0  0
 47 48  1  0  0  0  0
 47 54  1  0  0  0  0
 48 53  2  0  0  0  0
 48 49  1  0  0  0  0
 49 50  2  0  0  0  0
 50 51  1  0  0  0  0
 51 52  2  0  0  0  0
 52 53  1  0  0  0  0
 54 59  2  0  0  0  0
 54 55  1  0  0  0  0
 55 56  2  0  0  0  0
 56 57  1  0  0  0  0
 57 58  2  0  0  0  0
 58 59  1  0  0  0  0
 60 61  1  0  0  0  0
 62 63  1  0  0  0  0
 62 64  1  0  0  0  0
M  END
> <NMREDATA_VERSION>
1.1

> <NMREDATA_LEVEL>
0

> <NMREDATA_SOLVENT>
CDCl3

> <NMREDATA_FORMULA>
C62H52P2

> <NMREDATA_SMILES>
Cc1cc(C)c(c(c1)C)c1ccc2c(c1)ccc(c2c1c(ccc2c1ccc(c2)c1c(C)cc(cc1C)C)P(c1ccccc1)c1ccccc1)P(c1ccccc1)c1ccccc1

> <NMREDATA_ASSIGNMENT>
P15, -16.00, 15
P47, -16.00, 47

> <NMREDATA_1D_31P>
Larmor=162
-16.00, L=P15
-16.00, L=P47

$$$$
