
 OpenBabel06112616482D

 40 45  0  0  0  0  0  0  0  0999 V2000
   -0.8119   -1.4063    0.0000 C   0  0  0  0  0  0  0  0  0  0  0  0
   -0.8119   -0.4688    0.0000 C   0  0  0  0  0  0  0  0  0  0  0  0
   -1.6238    0.0000    0.0000 C   0  0  0  0  0  0  0  0  0  0  0  0
   -1.6238    0.9375    0.0000 C   0  0  0  0  0  0  0  0  0  0  0  0
   -0.8119    1.4063    0.0000 C   0  0  0  0  0  0  0  0  0  0  0  0
   -0.8119    2.3437    0.0000 C   0  0  0  0  0  0  0  0  0  0  0  0
   -1.6238    2.8125    0.0000 C   0  0  0  0  0  0  0  0  0  0  0  0
   -2.4357    2.3438    0.0000 P   0  0  3  0  0  0  0  0  0  0  0  0
   -3.2476    2.8125    0.0000 N   0  0  0  0  0  0  0  0  0  0  0  0
   -6.4952    0.9375    0.0000 C   0  0  0  0  0  0  0  0  0  0  0  0
   -6.4952    0.0000    0.0000 C   0  0  0  0  0  0  0  0  0  0  0  0
   -5.6833   -0.4687    0.0000 F   0  0  0  0  0  0  0  0  0  0  0  0
   -7.3071   -0.4687    0.0000 C   0  0  0  0  0  0  0  0  0  0  0  0
   -7.3071   -1.4062    0.0000 F   0  0  0  0  0  0  0  0  0  0  0  0
   -8.1190    0.0000    0.0000 C   0  0  0  0  0  0  0  0  0  0  0  0
   -8.9309   -0.4687    0.0000 F   0  0  0  0  0  0  0  0  0  0  0  0
   -8.1190    0.9375    0.0000 C   0  0  0  0  0  0  0  0  0  0  0  0
   -8.9309    1.4063    0.0000 F   0  0  0  0  0  0  0  0  0  0  0  0
   -7.3071    1.4063    0.0000 C   0  0  0  0  0  0  0  0  0  0  0  0
   -7.3071    2.3438    0.0000 F   0  0  0  0  0  0  0  0  0  0  0  0
   -3.2476    3.7500    0.0000 C   0  0  0  0  0  0  0  0  0  0  0  0
   -2.4357    4.2188    0.0000 C   0  0  0  0  0  0  0  0  0  0  0  0
   -2.4357    5.1562    0.0000 C   0  0  0  0  0  0  0  0  0  0  0  0
   -3.2476    5.6250    0.0000 C   0  0  0  0  0  0  0  0  0  0  0  0
   -4.0595    5.1563    0.0000 C   0  0  0  0  0  0  0  0  0  0  0  0
   -4.0595    4.2188    0.0000 C   0  0  0  0  0  0  0  0  0  0  0  0
   -4.8714    5.6250    0.0000 C   0  0  0  0  0  0  0  0  0  0  0  0
   -1.6238    3.7500    0.0000 C   0  0  0  0  0  0  0  0  0  0  0  0
   -0.8119    4.2188    0.0000 C   0  0  0  0  0  0  0  0  0  0  0  0
    0.0000    3.7500    0.0000 C   0  0  0  0  0  0  0  0  0  0  0  0
    0.0000    2.8125    0.0000 C   0  0  0  0  0  0  0  0  0  0  0  0
   -2.9044    1.5319    0.0000 C   0  0  0  0  0  0  0  0  0  0  0  0
   -2.4357    0.7200    0.0000 C   0  0  0  0  0  0  0  0  0  0  0  0
   -2.9044   -0.0919    0.0000 C   0  0  0  0  0  0  0  0  0  0  0  0
   -3.8419   -0.0919    0.0000 C   0  0  0  0  0  0  0  0  0  0  0  0
   -4.3107    0.7200    0.0000 C   0  0  0  0  0  0  0  0  0  0  0  0
   -3.8419    1.5319    0.0000 C   0  0  0  0  0  0  0  0  0  0  0  0
   -1.9669    1.5319    0.0000 O   0  0  0  0  0  0  0  0  0  0  0  0
    0.0000    0.9375    0.0000 C   0  0  0  0  0  0  0  0  0  0  0  0
    0.0000    0.0000    0.0000 C   0  0  0  0  0  0  0  0  0  0  0  0
  1  2  1  0  0  0  0
  2 40  2  0  0  0  0
  2  3  1  0  0  0  0
  3  4  2  0  0  0  0
  4  5  1  0  0  0  0
  5  6  1  0  0  0  0
  5 39  2  0  0  0  0
  6 31  2  0  0  0  0
  6  7  1  0  0  0  0
  7 28  2  0  0  0  0
  7  8  1  0  0  0  0
  8  9  1  0  0  0  0
  8 32  1  0  0  0  0
  8 38  2  0  0  0  0
  9 10  1  0  0  0  0
  9 21  1  0  0  0  0
 10 19  2  0  0  0  0
 10 11  1  0  0  0  0
 11 12  1  0  0  0  0
 11 13  2  0  0  0  0
 13 14  1  0  0  0  0
 13 15  1  0  0  0  0
 15 16  1  0  0  0  0
 15 17  2  0  0  0  0
 17 18  1  0  0  0  0
 17 19  1  0  0  0  0
 19 20  1  0  0  0  0
 21 26  2  0  0  0  0
 21 22  1  0  0  0  0
 22 23  2  0  0  0  0
 22 28  1  0  0  0  0
 23 24  1  0  0  0  0
 24 25  2  0  0  0  0
 25 26  1  0  0  0  0
 25 27  1  0  0  0  0
 28 29  1  0  0  0  0
 29 30  2  0  0  0  0
 30 31  1  0  0  0  0
 32 37  2  0  0  0  0
 32 33  1  0  0  0  0
 33 34  2  0  0  0  0
 34 35  1  0  0  0  0
 35 36  2  0  0  0  0
 36 37  1  0  0  0  0
 39 40  1  0  0  0  0
M  END
> <NMREDATA_VERSION>
1.1

> <NMREDATA_LEVEL>
0

> <NMREDATA_SOLVENT>
CDCl3

> <NMREDATA_FORMULA>
C32H21F5NOP

> <NMREDATA_SMILES>
Cc1ccc2-c3cccc(c3P(=O)(N(c2c1)c1c(F)c(F)c(c(c1F)F)F)c1ccccc1)c1ccc(cc1)C

> <NMREDATA_ASSIGNMENT>
P8, 14.21, 8

> <NMREDATA_1D_31P>
Larmor=162
14.21, L=P8

$$$$
