
 OpenBabel06112616422D

 28 31  0  0  1  0  0  0  0  0999 V2000
    1.4084   -1.2681    0.0000 C   0  0  0  0  0  0  0  0  0  0  0  0
    2.3771   -1.2681    0.0000 F   0  0  0  0  0  0  0  0  0  0  0  0
    1.8928   -0.4291    0.0000 F   0  0  0  0  0  0  0  0  0  0  0  0
    1.4084   -2.2369    0.0000 F   0  0  0  0  0  0  0  0  0  0  0  0
    0.5694   -0.7837    0.0000 C   0  0  2  0  0  0  0  0  0  0  0  0
    2.2473    0.1850    0.0000 C   0  0  0  0  0  0  0  0  0  0  0  0
    2.2473    1.1538    0.0000 C   0  0  0  0  0  0  0  0  0  0  0  0
    3.0863    1.6381    0.0000 C   0  0  0  0  0  0  0  0  0  0  0  0
    3.9253    1.1538    0.0000 C   0  0  0  0  0  0  0  0  0  0  0  0
    3.9253    0.1850    0.0000 C   0  0  0  0  0  0  0  0  0  0  0  0
    4.7642   -0.2994    0.0000 C   0  0  0  0  0  0  0  0  0  0  0  0
    4.7642   -1.2681    0.0000 C   0  0  0  0  0  0  0  0  0  0  0  0
    3.9253   -1.7525    0.0000 C   0  0  0  0  0  0  0  0  0  0  0  0
    3.0863   -1.2681    0.0000 C   0  0  0  0  0  0  0  0  0  0  0  0
    3.0863   -0.2994    0.0000 C   0  0  0  0  0  0  0  0  0  0  0  0
    0.0000   -1.5675    0.0000 O   0  0  0  0  0  0  0  0  0  0  0  0
   -0.9213   -1.2681    0.0000 P   0  0  1  0  0  0  0  0  0  0  0  0
   -1.8848   -1.3694    0.0000 O   0  0  0  0  0  0  0  0  0  0  0  0
   -1.3154   -2.1531    0.0000 O   0  0  0  0  0  0  0  0  0  0  0  0
   -2.2788   -2.2544    0.0000 C   0  0  0  0  0  0  0  0  0  0  0  0
   -2.6728   -3.1394    0.0000 C   0  0  0  0  0  0  0  0  0  0  0  0
   -3.6363   -3.2406    0.0000 C   0  0  0  0  0  0  0  0  0  0  0  0
   -0.9213   -0.2994    0.0000 C   0  0  0  0  0  0  0  0  0  0  0  0
   -1.6413    0.3489    0.0000 C   0  0  0  0  0  0  0  0  0  0  0  0
   -1.4398    1.2964    0.0000 C   0  0  0  0  0  0  0  0  0  0  0  0
   -0.5185    1.5958    0.0000 C   0  0  0  0  0  0  0  0  0  0  0  0
    0.2014    0.9476    0.0000 C   0  0  0  0  0  0  0  0  0  0  0  0
    0.0000    0.0000    0.0000 C   0  0  0  0  0  0  0  0  0  0  0  0
  1  2  1  0  0  0  0
  1  3  1  0  0  0  0
  1  4  1  0  0  0  0
  5  1  1  6  0  0  0
  5 28  1  0  0  0  0
  5  6  1  0  0  0  0
  5 16  1  0  0  0  0
  6 15  2  0  0  0  0
  6  7  1  0  0  0  0
  7  8  2  0  0  0  0
  8  9  1  0  0  0  0
  9 10  2  0  0  0  0
 10 15  1  0  0  0  0
 10 11  1  0  0  0  0
 11 12  2  0  0  0  0
 12 13  1  0  0  0  0
 13 14  2  0  0  0  0
 14 15  1  0  0  0  0
 16 17  1  0  0  0  0
 17 18  2  6  0  0  0
 17 19  1  0  0  0  0
 17 23  1  0  0  0  0
 19 20  1  0  0  0  0
 20 21  1  0  0  0  0
 21 22  2  0  0  0  0
 23 28  2  0  0  0  0
 23 24  1  0  0  0  0
 24 25  2  0  0  0  0
 25 26  1  0  0  0  0
 26 27  2  0  0  0  0
 27 28  1  0  0  0  0
M  END
> <NMREDATA_VERSION>
1.1

> <NMREDATA_LEVEL>
0

> <NMREDATA_SOLVENT>
CDCl3

> <NMREDATA_FORMULA>
C21H16F3O3P

> <NMREDATA_SMILES>
C=CCO[P@]1(=O)O[C@@](c2c1cccc2)(c1cccc2c1cccc2)C(F)(F)F

> <NMREDATA_ASSIGNMENT>
P17, 32.20, 17

> <NMREDATA_1D_31P>
Larmor=243
32.20, L=P17

$$$$
