
 OpenBabel06112616482D

 24 25  0  0  0  0  0  0  0  0999 V2000
    -4.500    -0.134     0.000 C   0  0  0  0  0  0  0  0  0  0  0  0
    -4.000    -1.000     0.000 N   0  0  0  0  0  0  0  0  0  0  0  0
    -4.500    -1.866     0.000 C   0  0  0  0  0  0  0  0  0  0  0  0
    -3.000    -1.000     0.000 C   0  0  0  0  0  0  0  0  0  0  0  0
    -2.500    -0.134     0.000 C   0  0  0  0  0  0  0  0  0  0  0  0
    -1.500    -0.134     0.000 C   0  0  0  0  0  0  0  0  0  0  0  0
    -1.000    -1.000     0.000 C   0  0  0  0  0  0  0  0  0  0  0  0
     0.000    -1.000     0.000 P   0  0  0  0  0  0  0  0  0  0  0  0
     0.000    -2.000     0.000 O   0  0  0  0  0  0  0  0  0  0  0  0
     1.000    -1.000     0.000 C   0  0  0  0  0  0  0  0  0  0  0  0
     1.500    -0.134     0.000 C   0  0  0  0  0  0  0  0  0  0  0  0
     2.500    -0.134     0.000 C   0  0  0  0  0  0  0  0  0  0  0  0
     3.000    -1.000     0.000 C   0  0  0  0  0  0  0  0  0  0  0  0
     4.000    -1.000     0.000 N   0  0  0  0  0  0  0  0  0  0  0  0
     4.500    -1.866     0.000 C   0  0  0  0  0  0  0  0  0  0  0  0
     4.500    -0.134     0.000 C   0  0  0  0  0  0  0  0  0  0  0  0
     2.500    -1.866     0.000 C   0  0  0  0  0  0  0  0  0  0  0  0
     1.500    -1.866     0.000 C   0  0  0  0  0  0  0  0  0  0  0  0
     0.000     0.000     0.000 C   0  0  0  0  0  0  0  0  0  0  0  0
    -0.500     0.866     0.000 C   0  0  0  0  0  0  0  0  0  0  0  0
    -1.000     0.000     0.000 C   0  0  0  0  0  0  0  0  0  0  0  0
     0.866     0.500     0.000 C   0  0  0  0  0  0  0  0  0  0  0  0
    -1.500    -1.866     0.000 C   0  0  0  0  0  0  0  0  0  0  0  0
    -2.500    -1.866     0.000 C   0  0  0  0  0  0  0  0  0  0  0  0
  1  2  1  0  0  0  0
  2  3  1  0  0  0  0
  2  4  1  0  0  0  0
  4 24  2  0  0  0  0
  4  5  1  0  0  0  0
  5  6  2  0  0  0  0
  6  7  1  0  0  0  0
  7  8  1  0  0  0  0
  7 23  2  0  0  0  0
  8  9  2  0  0  0  0
  8 10  1  0  0  0  0
  8 19  1  0  0  0  0
 10 18  2  0  0  0  0
 10 11  1  0  0  0  0
 11 12  2  0  0  0  0
 12 13  1  0  0  0  0
 13 14  1  0  0  0  0
 13 17  2  0  0  0  0
 14 15  1  0  0  0  0
 14 16  1  0  0  0  0
 17 18  1  0  0  0  0
 19 20  1  0  0  0  0
 19 21  1  0  0  0  0
 19 22  1  0  0  0  0
 23 24  1  0  0  0  0
M  END
> <NMREDATA_VERSION>
1.1

> <NMREDATA_LEVEL>
0

> <NMREDATA_SOLVENT>
CDCl3

> <NMREDATA_FORMULA>
C20H29N2OP

> <NMREDATA_SMILES>
CN(c1ccc(cc1)P(=O)(C(C)(C)C)c1ccc(cc1)N(C)C)C

> <NMREDATA_ASSIGNMENT>
P8, 39.70, 8

> <NMREDATA_1D_31P>
Larmor=162
39.70, L=P8

$$$$
