
 OpenBabel06112616472D

 30 34  0  0  0  0  0  0  0  0999 V2000
   -2.2137    0.7384    0.0000 C   0  0  0  0  0  0  0  0  0  0  0  0
   -2.5138   -0.1855    0.0000 C   0  0  0  0  0  0  0  0  0  0  0  0
   -1.9429   -0.9714    0.0000 C   0  0  0  0  0  0  0  0  0  0  0  0
    0.0000   -0.9714    0.0000 P   0  0  0  0  0  0  0  0  0  0  0  0
    0.0000   -1.9429    0.0000 C   0  0  0  0  0  0  0  0  0  0  0  0
    0.8413   -2.4286    0.0000 C   0  0  0  0  0  0  0  0  0  0  0  0
    0.8413   -3.4000    0.0000 C   0  0  0  0  0  0  0  0  0  0  0  0
    0.0000   -3.8857    0.0000 C   0  0  0  0  0  0  0  0  0  0  0  0
   -0.8413   -3.4000    0.0000 C   0  0  0  0  0  0  0  0  0  0  0  0
   -0.8413   -2.4286    0.0000 C   0  0  0  0  0  0  0  0  0  0  0  0
    0.9714   -0.9714    0.0000 C   0  0  0  0  0  0  0  0  0  0  0  0
    1.4571   -0.1301    0.0000 C   0  0  0  0  0  0  0  0  0  0  0  0
    2.4286   -0.1301    0.0000 C   0  0  0  0  0  0  0  0  0  0  0  0
    2.9143   -0.9714    0.0000 C   0  0  0  0  0  0  0  0  0  0  0  0
    2.4286   -1.8127    0.0000 C   0  0  0  0  0  0  0  0  0  0  0  0
    1.4571   -1.8127    0.0000 C   0  0  0  0  0  0  0  0  0  0  0  0
    0.0000    0.0000    0.0000 O   0  0  0  0  0  0  0  0  0  0  0  0
   -2.5138   -1.7573    0.0000 N   0  0  0  0  0  0  0  0  0  0  0  0
   -2.2137   -2.6812    0.0000 N   0  0  0  0  0  0  0  0  0  0  0  0
   -3.4377   -1.4571    0.0000 C   0  0  0  0  0  0  0  0  0  0  0  0
   -4.2790   -1.9429    0.0000 C   0  0  0  0  0  0  0  0  0  0  0  0
   -5.1203   -1.4571    0.0000 C   0  0  0  0  0  0  0  0  0  0  0  0
   -5.1203   -0.4857    0.0000 C   0  0  0  0  0  0  0  0  0  0  0  0
   -4.2790    0.0000    0.0000 C   0  0  0  0  0  0  0  0  0  0  0  0
   -3.4377   -0.4857    0.0000 C   0  0  0  0  0  0  0  0  0  0  0  0
   -2.8637    1.4603    0.0000 C   0  0  0  0  0  0  0  0  0  0  0  0
   -2.5635    2.3842    0.0000 C   0  0  0  0  0  0  0  0  0  0  0  0
   -1.6133    2.5861    0.0000 C   0  0  0  0  0  0  0  0  0  0  0  0
   -0.9633    1.8642    0.0000 C   0  0  0  0  0  0  0  0  0  0  0  0
   -1.2635    0.9403    0.0000 C   0  0  0  0  0  0  0  0  0  0  0  0
  1 30  2  0  0  0  0
  1  2  1  0  0  0  0
  1 26  1  0  0  0  0
  2 25  1  0  0  0  0
  2  3  2  0  0  0  0
  3  4  1  0  0  0  0
  3 18  1  0  0  0  0
  4  5  1  0  0  0  0
  4 11  1  0  0  0  0
  4 17  2  0  0  0  0
  5 10  2  0  0  0  0
  5  6  1  0  0  0  0
  6  7  2  0  0  0  0
  7  8  1  0  0  0  0
  8  9  2  0  0  0  0
  9 10  1  0  0  0  0
 11 16  2  0  0  0  0
 11 12  1  0  0  0  0
 12 13  2  0  0  0  0
 13 14  1  0  0  0  0
 14 15  2  0  0  0  0
 15 16  1  0  0  0  0
 18 19  1  0  0  0  0
 18 20  1  0  0  0  0
 20 25  2  0  0  0  0
 20 21  1  0  0  0  0
 21 22  2  0  0  0  0
 22 23  1  0  0  0  0
 23 24  2  0  0  0  0
 24 25  1  0  0  0  0
 26 27  2  0  0  0  0
 27 28  1  0  0  0  0
 28 29  2  0  0  0  0
 29 30  1  0  0  0  0
M  END
> <NMREDATA_VERSION>
1.1

> <NMREDATA_LEVEL>
0

> <NMREDATA_SOLVENT>
DMSO-d6

> <NMREDATA_FORMULA>
C26H21N2OP

> <NMREDATA_SMILES>
Nn1c2ccccc2c(c1P(=O)(c1ccccc1)c1ccccc1)c1ccccc1

> <NMREDATA_ASSIGNMENT>
P4, 16.80, 4

> <NMREDATA_1D_31P>
Larmor=162
16.80, L=P4

$$$$
