
 OpenBabel06112616462D

 32 36  0  0  0  0  0  0  0  0999 V2000
    1.4595    1.5549    0.0000 O   0  0  0  0  0  0  0  0  0  0  0  0
    1.9459    0.7123    0.0000 C   0  0  0  0  0  0  0  0  0  0  0  0
    0.9730   -0.9730    0.0000 N   0  0  0  0  0  0  0  0  0  0  0  0
    0.0000   -0.9730    0.0000 P   0  0  0  0  0  0  0  0  0  0  0  0
    0.0000   -1.9459    0.0000 C   0  0  0  0  0  0  0  0  0  0  0  0
   -0.8426   -2.4324    0.0000 C   0  0  0  0  0  0  0  0  0  0  0  0
   -0.8426   -3.4054    0.0000 C   0  0  0  0  0  0  0  0  0  0  0  0
    0.0000   -3.8919    0.0000 C   0  0  0  0  0  0  0  0  0  0  0  0
    0.8426   -3.4054    0.0000 C   0  0  0  0  0  0  0  0  0  0  0  0
    0.8426   -2.4324    0.0000 C   0  0  0  0  0  0  0  0  0  0  0  0
   -0.9730   -0.9730    0.0000 C   0  0  0  0  0  0  0  0  0  0  0  0
   -1.4595   -0.1304    0.0000 C   0  0  0  0  0  0  0  0  0  0  0  0
   -2.4324   -0.1304    0.0000 C   0  0  0  0  0  0  0  0  0  0  0  0
   -2.9189   -0.9730    0.0000 C   0  0  0  0  0  0  0  0  0  0  0  0
   -2.4324   -1.8156    0.0000 C   0  0  0  0  0  0  0  0  0  0  0  0
   -1.4595   -1.8156    0.0000 C   0  0  0  0  0  0  0  0  0  0  0  0
    0.0000    0.0000    0.0000 C   0  0  0  0  0  0  0  0  0  0  0  0
    0.8426    0.4865    0.0000 C   0  0  0  0  0  0  0  0  0  0  0  0
    0.8426    1.4595    0.0000 C   0  0  0  0  0  0  0  0  0  0  0  0
    0.0000    1.9459    0.0000 C   0  0  0  0  0  0  0  0  0  0  0  0
   -0.8426    1.4595    0.0000 C   0  0  0  0  0  0  0  0  0  0  0  0
   -0.8426    0.4865    0.0000 C   0  0  0  0  0  0  0  0  0  0  0  0
    2.9189    0.7123    0.0000 C   0  0  0  0  0  0  0  0  0  0  0  0
    3.4054    1.5549    0.0000 C   0  0  0  0  0  0  0  0  0  0  0  0
    4.3784    1.5549    0.0000 C   0  0  0  0  0  0  0  0  0  0  0  0
    4.8649    0.7123    0.0000 C   0  0  0  0  0  0  0  0  0  0  0  0
    4.3784   -0.1304    0.0000 C   0  0  0  0  0  0  0  0  0  0  0  0
    4.8649   -0.9730    0.0000 C   0  0  0  0  0  0  0  0  0  0  0  0
    4.3784   -1.8156    0.0000 C   0  0  0  0  0  0  0  0  0  0  0  0
    3.4054   -1.8156    0.0000 C   0  0  0  0  0  0  0  0  0  0  0  0
    2.9189   -0.9730    0.0000 C   0  0  0  0  0  0  0  0  0  0  0  0
    3.4054   -0.1304    0.0000 C   0  0  0  0  0  0  0  0  0  0  0  0
  1  2  2  0  0  0  0
  2  3  1  0  0  0  0
  2 23  1  0  0  0  0
  3  4  2  0  0  0  0
  4  5  1  0  0  0  0
  4 11  1  0  0  0  0
  4 17  1  0  0  0  0
  5 10  2  0  0  0  0
  5  6  1  0  0  0  0
  6  7  2  0  0  0  0
  7  8  1  0  0  0  0
  8  9  2  0  0  0  0
  9 10  1  0  0  0  0
 11 16  2  0  0  0  0
 11 12  1  0  0  0  0
 12 13  2  0  0  0  0
 13 14  1  0  0  0  0
 14 15  2  0  0  0  0
 15 16  1  0  0  0  0
 17 22  2  0  0  0  0
 17 18  1  0  0  0  0
 18 19  2  0  0  0  0
 19 20  1  0  0  0  0
 20 21  2  0  0  0  0
 21 22  1  0  0  0  0
 23 32  2  0  0  0  0
 23 24  1  0  0  0  0
 24 25  2  0  0  0  0
 25 26  1  0  0  0  0
 26 27  2  0  0  0  0
 27 32  1  0  0  0  0
 27 28  1  0  0  0  0
 28 29  2  0  0  0  0
 29 30  1  0  0  0  0
 30 31  2  0  0  0  0
 31 32  1  0  0  0  0
M  END
> <NMREDATA_VERSION>
1.1

> <NMREDATA_LEVEL>
0

> <NMREDATA_SOLVENT>
CDCl3

> <NMREDATA_FORMULA>
C29H22NOP

> <NMREDATA_SMILES>
O=C(c1cccc2c1cccc2)N=P(c1ccccc1)(c1ccccc1)c1ccccc1

> <NMREDATA_ASSIGNMENT>
P4, 20.60, 4

> <NMREDATA_1D_31P>
Larmor=202
20.60, L=P4

$$$$
