
 OpenBabel06112616482D

 34 36  0  0  1  0  0  0  0  0999 V2000
    6.8713    4.3784    0.0000 C   0  0  0  0  0  0  0  0  0  0  0  0
    6.0287    4.8649    0.0000 O   0  0  0  0  0  0  0  0  0  0  0  0
    5.1861    4.3784    0.0000 C   0  0  0  0  0  0  0  0  0  0  0  0
    5.1861    3.4054    0.0000 C   0  0  0  0  0  0  0  0  0  0  0  0
    4.3435    2.9189    0.0000 C   0  0  0  0  0  0  0  0  0  0  0  0
    3.5008    3.4054    0.0000 C   0  0  0  0  0  0  0  0  0  0  0  0
    1.8156    2.4324    0.0000 C   0  0  1  0  0  0  0  0  0  0  0  0
    1.8156    1.4595    0.0000 C   0  0  3  0  0  0  0  0  0  0  0  0
    2.6582    1.9459    0.0000 C   0  0  0  0  0  0  0  0  0  0  0  0
    3.5008    1.4595    0.0000 C   0  0  0  0  0  0  0  0  0  0  0  0
    4.3435    1.9459    0.0000 C   0  0  0  0  0  0  0  0  0  0  0  0
    4.8299    2.7886    0.0000 C   0  0  0  0  0  0  0  0  0  0  0  0
    3.8570    2.7886    0.0000 C   0  0  0  0  0  0  0  0  0  0  0  0
    5.1861    1.4595    0.0000 C   0  0  0  0  0  0  0  0  0  0  0  0
    3.5008    0.4865    0.0000 C   0  0  0  0  0  0  0  0  0  0  0  0
    4.3435    0.0000    0.0000 O   0  0  0  0  0  0  0  0  0  0  0  0
    2.6582    0.0000    0.0000 C   0  0  0  0  0  0  0  0  0  0  0  0
    2.6582   -0.9730    0.0000 C   0  0  0  0  0  0  0  0  0  0  0  0
    2.1717   -1.8156    0.0000 C   0  0  0  0  0  0  0  0  0  0  0  0
    1.6852   -0.9730    0.0000 C   0  0  0  0  0  0  0  0  0  0  0  0
    3.5008   -1.4595    0.0000 C   0  0  0  0  0  0  0  0  0  0  0  0
    1.8156    0.4865    0.0000 C   0  0  0  0  0  0  0  0  0  0  0  0
    0.9730    0.9730    0.0000 C   0  0  2  0  0  0  0  0  0  0  0  0
    0.9730    0.0000    0.0000 P   0  0  0  0  0  0  0  0  0  0  0  0
    1.9459    0.0000    0.0000 O   0  0  0  0  0  0  0  0  0  0  0  0
    0.9730   -0.9730    0.0000 O   0  0  0  0  0  0  0  0  0  0  0  0
    1.8156   -1.4595    0.0000 C   0  0  0  0  0  0  0  0  0  0  0  0
    0.0000    0.0000    0.0000 O   0  0  0  0  0  0  0  0  0  0  0  0
   -0.4865    0.8426    0.0000 C   0  0  0  0  0  0  0  0  0  0  0  0
    0.1304    1.4595    0.0000 C   0  0  0  0  0  0  0  0  0  0  0  0
    0.1304    2.4324    0.0000 C   0  0  0  0  0  0  0  0  0  0  0  0
    0.9730    2.9189    0.0000 C   0  0  0  0  0  0  0  0  0  0  0  0
    3.5008    4.3784    0.0000 C   0  0  0  0  0  0  0  0  0  0  0  0
    4.3435    4.8649    0.0000 C   0  0  0  0  0  0  0  0  0  0  0  0
  1  2  1  0  0  0  0
  2  3  1  0  0  0  0
  3 34  2  0  0  0  0
  3  4  1  0  0  0  0
  4  5  2  0  0  0  0
  5  6  1  0  0  0  0
  6 33  2  0  0  0  0
  7  6  1  1  0  0  0
  7  8  1  0  0  0  0
  7 32  1  0  0  0  0
  8 22  1  0  0  0  0
  8  9  1  0  0  0  0
  8 23  1  0  0  0  0
  9 10  2  0  0  0  0
 10 11  1  0  0  0  0
 10 15  1  0  0  0  0
 11 12  1  0  0  0  0
 11 13  1  0  0  0  0
 11 14  1  0  0  0  0
 15 16  2  0  0  0  0
 15 17  1  0  0  0  0
 17 18  1  0  0  0  0
 17 22  2  0  0  0  0
 18 19  1  0  0  0  0
 18 20  1  0  0  0  0
 18 21  1  0  0  0  0
 23 24  1  6  0  0  0
 23 30  1  0  0  0  0
 24 25  2  0  0  0  0
 24 26  1  0  0  0  0
 24 28  1  0  0  0  0
 26 27  1  0  0  0  0
 28 29  1  0  0  0  0
 30 31  1  0  0  0  0
 31 32  2  0  0  0  0
 33 34  1  0  0  0  0
M  END
> <NMREDATA_VERSION>
1.1

> <NMREDATA_LEVEL>
0

> <NMREDATA_SOLVENT>
CDCl3

> <NMREDATA_FORMULA>
C28H39O5P

> <NMREDATA_SMILES>
COc1ccc(cc1)[C@@H]1C=CC[C@H](C21C=C(C(=O)C(=C2)C(C)(C)C)C(C)(C)C)P(=O)(OC)OC

> <NMREDATA_ASSIGNMENT>
P24, 32.52, 24

> <NMREDATA_1D_31P>
Larmor=162
32.52, L=P24

$$$$
