
 OpenBabel06112616482D

 30 32  0  0  1  0  0  0  0  0999 V2000
   -0.9697    0.7099    0.0000 C   0  0  0  0  0  0  0  0  0  0  0  0
   -1.4545   -0.1299    0.0000 C   0  0  0  0  0  0  0  0  0  0  0  0
   -3.3939   -0.1299    0.0000 C   0  0  0  0  0  0  0  0  0  0  0  0
   -0.9697   -0.9697    0.0000 O   0  0  0  0  0  0  0  0  0  0  0  0
    0.0000   -0.9697    0.0000 P   0  0  0  0  0  0  0  0  0  0  0  0
    0.0000   -1.9394    0.0000 C   0  0  3  0  0  0  0  0  0  0  0  0
    0.8398   -2.4242    0.0000 C   0  0  0  0  0  0  0  0  0  0  0  0
    1.6796   -1.9394    0.0000 C   0  0  0  0  0  0  0  0  0  0  0  0
    2.5193   -2.4242    0.0000 C   0  0  0  0  0  0  0  0  0  0  0  0
    3.3591   -1.9394    0.0000 O   0  0  0  0  0  0  0  0  0  0  0  0
    4.1989   -2.4242    0.0000 C   0  0  0  0  0  0  0  0  0  0  0  0
    2.5193   -3.3939    0.0000 C   0  0  0  0  0  0  0  0  0  0  0  0
    3.3591   -3.8788    0.0000 O   0  0  0  0  0  0  0  0  0  0  0  0
    4.1989   -3.3939    0.0000 C   0  0  0  0  0  0  0  0  0  0  0  0
    1.6796   -3.8788    0.0000 C   0  0  0  0  0  0  0  0  0  0  0  0
    0.8398   -3.3939    0.0000 C   0  0  0  0  0  0  0  0  0  0  0  0
    0.0000   -3.8788    0.0000 C   0  0  0  0  0  0  0  0  0  0  0  0
   -0.8398   -3.3939    0.0000 C   0  0  0  0  0  0  0  0  0  0  0  0
   -0.8398   -2.4242    0.0000 N   0  0  0  0  0  0  0  0  0  0  0  0
   -1.6796   -1.9394    0.0000 C   0  0  0  0  0  0  0  0  0  0  0  0
   -2.5193   -2.4242    0.0000 C   0  0  0  0  0  0  0  0  0  0  0  0
   -3.3591   -1.9394    0.0000 C   0  0  0  0  0  0  0  0  0  0  0  0
   -3.3591   -0.9697    0.0000 C   0  0  0  0  0  0  0  0  0  0  0  0
   -2.5193   -0.4848    0.0000 C   0  0  0  0  0  0  0  0  0  0  0  0
   -1.6796   -0.9697    0.0000 C   0  0  0  0  0  0  0  0  0  0  0  0
    0.9697   -0.9697    0.0000 O   0  0  0  0  0  0  0  0  0  0  0  0
    1.4545   -0.1299    0.0000 C   0  0  0  0  0  0  0  0  0  0  0  0
    0.9697    0.7099    0.0000 C   0  0  0  0  0  0  0  0  0  0  0  0
    2.4242   -0.1299    0.0000 C   0  0  0  0  0  0  0  0  0  0  0  0
    0.0000    0.0000    0.0000 O   0  0  0  0  0  0  0  0  0  0  0  0
  1  2  1  0  0  0  0
  2  3  1  0  0  0  0
  2  4  1  0  0  0  0
  4  5  1  0  0  0  0
  5  6  1  0  0  0  0
  5 26  1  0  0  0  0
  5 30  2  0  0  0  0
  6 19  1  0  0  0  0
  6  7  1  0  0  0  0
  7 16  2  0  0  0  0
  7  8  1  0  0  0  0
  8  9  2  0  0  0  0
  9 10  1  0  0  0  0
  9 12  1  0  0  0  0
 10 11  1  0  0  0  0
 12 13  1  0  0  0  0
 12 15  2  0  0  0  0
 13 14  1  0  0  0  0
 15 16  1  0  0  0  0
 16 17  1  0  0  0  0
 17 18  1  0  0  0  0
 18 19  1  0  0  0  0
 19 20  1  0  0  0  0
 20 25  2  0  0  0  0
 20 21  1  0  0  0  0
 21 22  2  0  0  0  0
 22 23  1  0  0  0  0
 23 24  2  0  0  0  0
 24 25  1  0  0  0  0
 26 27  1  0  0  0  0
 27 28  1  0  0  0  0
 27 29  1  0  0  0  0
M  END
> <NMREDATA_VERSION>
1.1

> <NMREDATA_LEVEL>
0

> <NMREDATA_SOLVENT>
CDCl3

> <NMREDATA_FORMULA>
C23H32NO5P

> <NMREDATA_SMILES>
COc1cc2c(cc1OC)CCN(C2P(=O)(OC(C)C)OC(C)C)c1ccccc1

> <NMREDATA_ASSIGNMENT>
P5, 21.00, 5

> <NMREDATA_1D_31P>
Larmor=162
21.00, L=P5

$$$$
