
 OpenBabel06112616442D

 32 37  0  0  0  0  0  0  0  0999 V2000
    0.8660   -2.2321    0.0000 N   0  0  0  0  0  0  0  0  0  0  0  0
    1.7321   -1.7321    0.0000 C   0  0  0  0  0  0  0  0  0  0  0  0
    2.5981   -2.2321    0.0000 C   0  0  0  0  0  0  0  0  0  0  0  0
    3.4641   -1.7321    0.0000 C   0  0  0  0  0  0  0  0  0  0  0  0
    4.3301   -2.2321    0.0000 C   0  0  0  0  0  0  0  0  0  0  0  0
    4.3301   -3.2321    0.0000 C   0  0  0  0  0  0  0  0  0  0  0  0
    3.4641   -3.7321    0.0000 C   0  0  0  0  0  0  0  0  0  0  0  0
    2.5981   -3.2321    0.0000 C   0  0  0  0  0  0  0  0  0  0  0  0
    0.8660   -3.2321    0.0000 C   0  0  0  0  0  0  0  0  0  0  0  0
    1.7321   -3.7321    0.0000 C   0  0  0  0  0  0  0  0  0  0  0  0
    1.7321   -4.7321    0.0000 C   0  0  0  0  0  0  0  0  0  0  0  0
    0.8660   -5.2321    0.0000 C   0  0  0  0  0  0  0  0  0  0  0  0
    0.0000   -4.7321    0.0000 C   0  0  0  0  0  0  0  0  0  0  0  0
    0.0000   -3.7321    0.0000 C   0  0  0  0  0  0  0  0  0  0  0  0
   -0.8660   -3.2321    0.0000 C   0  0  0  0  0  0  0  0  0  0  0  0
   -0.8660   -2.2321    0.0000 C   0  0  0  0  0  0  0  0  0  0  0  0
   -1.7321   -1.7321    0.0000 C   0  0  0  0  0  0  0  0  0  0  0  0
   -2.5981   -2.2321    0.0000 C   0  0  0  0  0  0  0  0  0  0  0  0
   -2.5981   -3.2321    0.0000 C   0  0  0  0  0  0  0  0  0  0  0  0
   -3.4641   -3.7321    0.0000 C   0  0  0  0  0  0  0  0  0  0  0  0
   -3.4641   -4.7321    0.0000 C   0  0  0  0  0  0  0  0  0  0  0  0
   -2.5981   -5.2321    0.0000 C   0  0  0  0  0  0  0  0  0  0  0  0
   -1.7321   -4.7321    0.0000 C   0  0  0  0  0  0  0  0  0  0  0  0
   -1.7321   -3.7321    0.0000 C   0  0  0  0  0  0  0  0  0  0  0  0
    0.0000   -1.7321    0.0000 P   0  0  1  0  0  0  0  0  0  0  0  0
    0.5000   -0.8660    0.0000 O   0  0  0  0  0  0  0  0  0  0  0  0
   -0.5000   -0.8660    0.0000 C   0  0  0  0  0  0  0  0  0  0  0  0
   -1.5000   -0.8660    0.0000 C   0  0  0  0  0  0  0  0  0  0  0  0
   -2.0000    0.0000    0.0000 C   0  0  0  0  0  0  0  0  0  0  0  0
   -1.5000    0.8660    0.0000 C   0  0  0  0  0  0  0  0  0  0  0  0
   -0.5000    0.8660    0.0000 C   0  0  0  0  0  0  0  0  0  0  0  0
    0.0000    0.0000    0.0000 C   0  0  0  0  0  0  0  0  0  0  0  0
  1 25  1  0  0  0  0
  1  2  1  0  0  0  0
  1  9  1  0  0  0  0
  2  3  1  0  0  0  0
  3  8  2  0  0  0  0
  3  4  1  0  0  0  0
  4  5  2  0  0  0  0
  5  6  1  0  0  0  0
  6  7  2  0  0  0  0
  7  8  1  0  0  0  0
  9 14  2  0  0  0  0
  9 10  1  0  0  0  0
 10 11  2  0  0  0  0
 11 12  1  0  0  0  0
 12 13  2  0  0  0  0
 13 14  1  0  0  0  0
 14 15  1  0  0  0  0
 15 24  2  0  0  0  0
 15 16  1  0  0  0  0
 16 17  2  0  0  0  0
 16 25  1  0  0  0  0
 17 18  1  0  0  0  0
 18 19  2  0  0  0  0
 19 24  1  0  0  0  0
 19 20  1  0  0  0  0
 20 21  2  0  0  0  0
 21 22  1  0  0  0  0
 22 23  2  0  0  0  0
 23 24  1  0  0  0  0
 25 26  2  1  0  0  0
 25 27  1  0  0  0  0
 27 32  2  0  0  0  0
 27 28  1  0  0  0  0
 28 29  2  0  0  0  0
 29 30  1  0  0  0  0
 30 31  2  0  0  0  0
 31 32  1  0  0  0  0
M  END
> <NMREDATA_VERSION>
1.1

> <NMREDATA_LEVEL>
0

> <NMREDATA_SOLVENT>
CDCl3

> <NMREDATA_FORMULA>
C29H22NOP

> <NMREDATA_SMILES>
O=[P@@]1(c2ccccc2)N(Cc2ccccc2)c2ccccc2-c2c1ccc1c2cccc1

> <NMREDATA_ASSIGNMENT>
P25, 21.27, 25

> <NMREDATA_1D_31P>
Larmor=162
21.27, L=P25

$$$$
