
 OpenBabel06112616472D

 33 37  0  0  0  0  0  0  0  0999 V2000
    4.8684    0.0000    0.0000 C   0  0  0  0  0  0  0  0  0  0  0  0
    3.8947    0.0000    0.0000 C   0  0  0  0  0  0  0  0  0  0  0  0
    3.4079    0.8432    0.0000 C   0  0  0  0  0  0  0  0  0  0  0  0
    2.4342    0.8432    0.0000 C   0  0  0  0  0  0  0  0  0  0  0  0
    1.9474    0.0000    0.0000 C   0  0  0  0  0  0  0  0  0  0  0  0
    0.9737    0.0000    0.0000 P   0  0  0  0  0  0  0  0  0  0  0  0
    0.9737   -0.9737    0.0000 O   0  0  0  0  0  0  0  0  0  0  0  0
    0.9737    1.9474    0.0000 C   0  0  0  0  0  0  0  0  0  0  0  0
    1.8169    2.4342    0.0000 C   0  0  0  0  0  0  0  0  0  0  0  0
    2.7064    2.0382    0.0000 N   0  0  0  0  0  0  0  0  0  0  0  0
    3.3579    2.7618    0.0000 C   0  0  0  0  0  0  0  0  0  0  0  0
    4.3316    2.7618    0.0000 C   0  0  0  0  0  0  0  0  0  0  0  0
    4.8185    3.6050    0.0000 C   0  0  0  0  0  0  0  0  0  0  0  0
    4.3316    4.4482    0.0000 C   0  0  0  0  0  0  0  0  0  0  0  0
    3.3579    4.4482    0.0000 C   0  0  0  0  0  0  0  0  0  0  0  0
    2.8711    3.6050    0.0000 C   0  0  0  0  0  0  0  0  0  0  0  0
    1.9187    3.4026    0.0000 C   0  0  0  0  0  0  0  0  0  0  0  0
    1.1951    4.0541    0.0000 O   0  0  0  0  0  0  0  0  0  0  0  0
    0.1304    2.4342    0.0000 C   0  0  0  0  0  0  0  0  0  0  0  0
    0.1304    3.4079    0.0000 C   0  0  0  0  0  0  0  0  0  0  0  0
   -0.7128    3.8947    0.0000 C   0  0  0  0  0  0  0  0  0  0  0  0
   -1.5560    3.4079    0.0000 C   0  0  0  0  0  0  0  0  0  0  0  0
   -1.5560    2.4342    0.0000 C   0  0  0  0  0  0  0  0  0  0  0  0
   -0.7128    1.9474    0.0000 C   0  0  0  0  0  0  0  0  0  0  0  0
    0.0000    0.0000    0.0000 C   0  0  0  0  0  0  0  0  0  0  0  0
   -0.4868    0.8432    0.0000 C   0  0  0  0  0  0  0  0  0  0  0  0
   -1.4605    0.8432    0.0000 C   0  0  0  0  0  0  0  0  0  0  0  0
   -1.9474    0.0000    0.0000 C   0  0  0  0  0  0  0  0  0  0  0  0
   -2.9211    0.0000    0.0000 C   0  0  0  0  0  0  0  0  0  0  0  0
   -1.4605   -0.8432    0.0000 C   0  0  0  0  0  0  0  0  0  0  0  0
   -0.4868   -0.8432    0.0000 C   0  0  0  0  0  0  0  0  0  0  0  0
    2.4342   -0.8432    0.0000 C   0  0  0  0  0  0  0  0  0  0  0  0
    3.4079   -0.8432    0.0000 C   0  0  0  0  0  0  0  0  0  0  0  0
  1  2  1  0  0  0  0
  2 33  2  0  0  0  0
  2  3  1  0  0  0  0
  3  4  2  0  0  0  0
  4  5  1  0  0  0  0
  5  6  1  0  0  0  0
  5 32  2  0  0  0  0
  6  7  2  0  0  0  0
  6  8  1  0  0  0  0
  6 25  1  0  0  0  0
  8  9  2  0  0  0  0
  8 19  1  0  0  0  0
  9 17  1  0  0  0  0
  9 10  1  0  0  0  0
 10 11  1  0  0  0  0
 11 16  2  0  0  0  0
 11 12  1  0  0  0  0
 12 13  2  0  0  0  0
 13 14  1  0  0  0  0
 14 15  2  0  0  0  0
 15 16  1  0  0  0  0
 16 17  1  0  0  0  0
 17 18  2  0  0  0  0
 19 24  2  0  0  0  0
 19 20  1  0  0  0  0
 20 21  2  0  0  0  0
 21 22  1  0  0  0  0
 22 23  2  0  0  0  0
 23 24  1  0  0  0  0
 25 31  2  0  0  0  0
 25 26  1  0  0  0  0
 26 27  2  0  0  0  0
 27 28  1  0  0  0  0
 28 29  1  0  0  0  0
 28 30  2  0  0  0  0
 30 31  1  0  0  0  0
 32 33  1  0  0  0  0
M  END
> <NMREDATA_VERSION>
1.1

> <NMREDATA_LEVEL>
0

> <NMREDATA_SOLVENT>
DMSO-d6

> <NMREDATA_FORMULA>
C29H24NO2P

> <NMREDATA_SMILES>
Cc1ccc(cc1)P(=O)(/C(=C/1\Nc2c(C1=O)cccc2)/c1ccccc1)c1ccc(cc1)C

> <NMREDATA_ASSIGNMENT>
P6, 31.78, 6

> <NMREDATA_1D_31P>
Larmor=243
31.78, L=P6

$$$$
