
 OpenBabel06112616452D

 29 31  0  0  0  0  0  0  0  0999 V2000
   -0.9688   -2.6467    0.0000 C   0  0  0  0  0  0  0  0  0  0  0  0
   -1.4531   -1.8077    0.0000 C   0  0  0  0  0  0  0  0  0  0  0  0
   -0.9688   -0.9687    0.0000 C   0  0  0  0  0  0  0  0  0  0  0  0
    0.0000   -0.9687    0.0000 P   0  0  2  0  0  0  0  0  0  0  0  0
    0.0000   -1.9375    0.0000 O   0  0  0  0  0  0  0  0  0  0  0  0
    1.9375   -0.9688    0.0000 C   0  0  0  0  0  0  0  0  0  0  0  0
    2.4219   -0.1298    0.0000 C   0  0  0  0  0  0  0  0  0  0  0  0
    1.9375    0.7092    0.0000 C   0  0  0  0  0  0  0  0  0  0  0  0
    3.3906   -0.1298    0.0000 C   0  0  0  0  0  0  0  0  0  0  0  0
    3.8750   -0.9688    0.0000 C   0  0  0  0  0  0  0  0  0  0  0  0
    3.3906   -1.8077    0.0000 C   0  0  0  0  0  0  0  0  0  0  0  0
    2.4219   -1.8077    0.0000 C   0  0  0  0  0  0  0  0  0  0  0  0
    1.9375   -2.6467    0.0000 C   0  0  0  0  0  0  0  0  0  0  0  0
    0.0000    0.0000    0.0000 C   0  0  0  0  0  0  0  0  0  0  0  0
   -0.8390    0.4844    0.0000 C   0  0  0  0  0  0  0  0  0  0  0  0
   -0.8390    1.4531    0.0000 C   0  0  0  0  0  0  0  0  0  0  0  0
    0.0000    1.9375    0.0000 C   0  0  0  0  0  0  0  0  0  0  0  0
    0.8390    1.4531    0.0000 C   0  0  0  0  0  0  0  0  0  0  0  0
    0.8390    0.4844    0.0000 C   0  0  0  0  0  0  0  0  0  0  0  0
   -2.4219   -1.8077    0.0000 C   0  0  0  0  0  0  0  0  0  0  0  0
   -2.9062   -0.9687    0.0000 O   0  0  0  0  0  0  0  0  0  0  0  0
   -2.9063   -2.6467    0.0000 O   0  0  0  0  0  0  0  0  0  0  0  0
   -3.8750   -2.6467    0.0000 C   0  0  0  0  0  0  0  0  0  0  0  0
   -4.3594   -3.4856    0.0000 C   0  0  0  0  0  0  0  0  0  0  0  0
   -3.8750   -4.3246    0.0000 C   0  0  0  0  0  0  0  0  0  0  0  0
   -4.3594   -5.1636    0.0000 C   0  0  0  0  0  0  0  0  0  0  0  0
   -5.3281   -5.1636    0.0000 C   0  0  0  0  0  0  0  0  0  0  0  0
   -5.8125   -4.3246    0.0000 C   0  0  0  0  0  0  0  0  0  0  0  0
   -5.3281   -3.4856    0.0000 C   0  0  0  0  0  0  0  0  0  0  0  0
  1  2  2  0  0  0  0
  2  3  1  0  0  0  0
  2 20  1  0  0  0  0
  3  4  1  0  0  0  0
  4  5  2  6  0  0  0
  4  6  1  0  0  0  0
  4 14  1  0  0  0  0
  6 12  1  0  0  0  0
  6  7  2  0  0  0  0
  7  8  1  0  0  0  0
  7  9  1  0  0  0  0
  9 10  2  0  0  0  0
 10 11  1  0  0  0  0
 11 12  2  0  0  0  0
 12 13  1  0  0  0  0
 14 19  1  0  0  0  0
 14 15  2  0  0  0  0
 15 16  1  0  0  0  0
 16 17  2  0  0  0  0
 17 18  1  0  0  0  0
 18 19  2  0  0  0  0
 20 21  2  0  0  0  0
 20 22  1  0  0  0  0
 22 23  1  0  0  0  0
 23 24  1  0  0  0  0
 24 29  1  0  0  0  0
 24 25  2  0  0  0  0
 25 26  1  0  0  0  0
 26 27  2  0  0  0  0
 27 28  1  0  0  0  0
 28 29  2  0  0  0  0
M  END
> <NMREDATA_VERSION>
1.1

> <NMREDATA_LEVEL>
0

> <NMREDATA_SOLVENT>
CDCl3

> <NMREDATA_FORMULA>
C25H25O3P

> <NMREDATA_SMILES>
O=C(C(=C)C[P@](=O)(c1c(C)cccc1C)c1ccccc1)OCc1ccccc1

> <NMREDATA_ASSIGNMENT>
P4, 33.55, 4

> <NMREDATA_1D_31P>
Larmor=162
33.55, L=P4

$$$$
