
 OpenBabel06112616452D

 32 36  0  0  0  0  0  0  0  0999 V2000
    5.1016    0.1646    0.0000 C   0  0  0  0  0  0  0  0  0  0  0  0
    6.0746    0.1646    0.0000 F   0  0  0  0  0  0  0  0  0  0  0  0
    5.5881    1.0072    0.0000 F   0  0  0  0  0  0  0  0  0  0  0  0
    5.1016   -0.8084    0.0000 F   0  0  0  0  0  0  0  0  0  0  0  0
    4.2590    0.6510    0.0000 C   0  0  0  0  0  0  0  0  0  0  0  0
    3.4164    0.1646    0.0000 C   0  0  0  0  0  0  0  0  0  0  0  0
    2.5738    0.6510    0.0000 C   0  0  0  0  0  0  0  0  0  0  0  0
    1.6484    0.3504    0.0000 P   0  0  3  0  0  0  0  0  0  0  0  0
    1.0765    1.1375    0.0000 C   0  0  0  0  0  0  0  0  0  0  0  0
    1.6484    1.9247    0.0000 C   0  0  0  0  0  0  0  0  0  0  0  0
    1.3477    2.8500    0.0000 C   0  0  0  0  0  0  0  0  0  0  0  0
    0.3960    3.0523    0.0000 C   0  0  0  0  0  0  0  0  0  0  0  0
    0.0954    3.9777    0.0000 C   0  0  0  0  0  0  0  0  0  0  0  0
    0.7464    4.7007    0.0000 C   0  0  0  0  0  0  0  0  0  0  0  0
    1.6981    4.4984    0.0000 C   0  0  0  0  0  0  0  0  0  0  0  0
    1.9988    3.5731    0.0000 C   0  0  0  0  0  0  0  0  0  0  0  0
    2.5738    1.6240    0.0000 C   0  0  0  0  0  0  0  0  0  0  0  0
    3.4164    2.1105    0.0000 C   0  0  0  0  0  0  0  0  0  0  0  0
    4.2590    1.6240    0.0000 C   0  0  0  0  0  0  0  0  0  0  0  0
   -0.8694    1.1375    0.0000 C   0  0  0  0  0  0  0  0  0  0  0  0
   -1.3559    0.2949    0.0000 C   0  0  0  0  0  0  0  0  0  0  0  0
   -2.3289    0.2949    0.0000 C   0  0  0  0  0  0  0  0  0  0  0  0
   -2.8154    1.1375    0.0000 C   0  0  0  0  0  0  0  0  0  0  0  0
   -2.3289    1.9802    0.0000 C   0  0  0  0  0  0  0  0  0  0  0  0
   -1.3559    1.9802    0.0000 C   0  0  0  0  0  0  0  0  0  0  0  0
    0.9254   -0.3007    0.0000 C   0  0  0  0  0  0  0  0  0  0  0  0
    1.1276   -1.2524    0.0000 C   0  0  0  0  0  0  0  0  0  0  0  0
    0.4046   -1.9034    0.0000 C   0  0  0  0  0  0  0  0  0  0  0  0
   -0.5208   -1.6028    0.0000 C   0  0  0  0  0  0  0  0  0  0  0  0
   -0.7231   -0.6510    0.0000 C   0  0  0  0  0  0  0  0  0  0  0  0
    0.0000    0.0000    0.0000 C   0  0  0  0  0  0  0  0  0  0  0  0
    1.8507   -0.6013    0.0000 O   0  0  0  0  0  0  0  0  0  0  0  0
  1  2  1  0  0  0  0
  1  3  1  0  0  0  0
  1  4  1  0  0  0  0
  1  5  1  0  0  0  0
  5 19  2  0  0  0  0
  5  6  1  0  0  0  0
  6  7  2  0  0  0  0
  7 17  1  0  0  0  0
  7  8  1  0  0  0  0
  8  9  1  0  0  0  0
  8 26  1  0  0  0  0
  8 32  2  0  0  0  0
  9 10  2  0  0  0  0
  9 20  1  0  0  0  0
 10 11  1  0  0  0  0
 10 17  1  0  0  0  0
 11 16  2  0  0  0  0
 11 12  1  0  0  0  0
 12 13  2  0  0  0  0
 13 14  1  0  0  0  0
 14 15  2  0  0  0  0
 15 16  1  0  0  0  0
 17 18  2  0  0  0  0
 18 19  1  0  0  0  0
 20 25  2  0  0  0  0
 20 21  1  0  0  0  0
 21 22  2  0  0  0  0
 22 23  1  0  0  0  0
 23 24  2  0  0  0  0
 24 25  1  0  0  0  0
 26 31  2  0  0  0  0
 26 27  1  0  0  0  0
 27 28  2  0  0  0  0
 28 29  1  0  0  0  0
 29 30  2  0  0  0  0
 30 31  1  0  0  0  0
M  END
> <NMREDATA_VERSION>
1.1

> <NMREDATA_LEVEL>
0

> <NMREDATA_SOLVENT>
CDCl3

> <NMREDATA_FORMULA>
C27H18F3OP

> <NMREDATA_SMILES>
O=P1(c2ccccc2)c2cc(ccc2C(=C1c1ccccc1)c1ccccc1)C(F)(F)F

> <NMREDATA_ASSIGNMENT>
P8, 38.00, 8

> <NMREDATA_1D_31P>
Larmor=162
38.00, L=P8

$$$$
