
 OpenBabel06112616432D

 24 26  0  0  0  0  0  0  0  0999 V2000
   -1.0000   -1.0000    0.0000 O    0  0  0  0  0  0  0  0  0  0  0  0
    0.0000   -1.0000    0.0000 P    0  0  0  0  0  0  0  0  0  0  0  0
    0.0000   -2.0000    0.0000 O    0  0  0  0  0  0  0  0  0  0  0  0
   -0.8660   -2.5000    0.0000 C    0  0  0  0  0  0  0  0  0  0  0  0
   -0.8660   -3.5000    0.0000 C    0  0  0  0  0  0  0  0  0  0  0  0
    1.0000   -1.0000    0.0000 O    0  0  0  0  0  0  0  0  0  0  0  0
    1.5000   -1.8660    0.0000 C    0  0  0  0  0  0  0  0  0  0  0  0
    1.0000   -2.7321    0.0000 C    0  0  0  0  0  0  0  0  0  0  0  0
    0.0000    0.0000    0.0000 C    0  0  0  0  0  0  0  0  0  0  0  0
   -0.8090    0.5878    0.0000 C    0  0  0  0  0  0  0  0  0  0  0  0
   -1.7601    0.2788    0.0000 C    0  0  0  0  0  0  0  0  0  0  0  0
   -1.9680   -0.6994    0.0000 C    0  0  0  0  0  0  0  0  0  0  0  0
   -2.9190   -1.0084    0.0000 C    0  0  0  0  0  0  0  0  0  0  0  0
   -3.6622   -0.3393    0.0000 C    0  0  0  0  0  0  0  0  0  0  0  0
   -4.6132   -0.6483    0.0000 Br   0  0  0  0  0  0  0  0  0  0  0  0
   -3.4543    0.6389    0.0000 C    0  0  0  0  0  0  0  0  0  0  0  0
   -2.5032    0.9479    0.0000 C    0  0  0  0  0  0  0  0  0  0  0  0
   -0.5000    1.5388    0.0000 N    0  0  0  0  0  0  0  0  0  0  0  0
    0.5000    1.5388    0.0000 C    0  0  0  0  0  0  0  0  0  0  0  0
    1.1691    2.2820    0.0000 C    0  0  0  0  0  0  0  0  0  0  0  0
    2.1473    2.0741    0.0000 C    0  0  0  0  0  0  0  0  0  0  0  0
    2.4563    1.1230    0.0000 C    0  0  0  0  0  0  0  0  0  0  0  0
    1.7872    0.3799    0.0000 C    0  0  0  0  0  0  0  0  0  0  0  0
    0.8090    0.5878    0.0000 N    0  0  0  0  0  0  0  0  0  0  0  0
  1  2  2  0  0  0  0
  2  3  1  0  0  0  0
  2  6  1  0  0  0  0
  2  9  1  0  0  0  0
  3  4  1  0  0  0  0
  4  5  1  0  0  0  0
  6  7  1  0  0  0  0
  7  8  1  0  0  0  0
  9 24  1  0  0  0  0
  9 10  2  0  0  0  0
 10 11  1  0  0  0  0
 10 18  1  0  0  0  0
 11 17  2  0  0  0  0
 11 12  1  0  0  0  0
 12 13  2  0  0  0  0
 13 14  1  0  0  0  0
 14 15  1  0  0  0  0
 14 16  2  0  0  0  0
 16 17  1  0  0  0  0
 18 19  2  0  0  0  0
 19 24  1  0  0  0  0
 19 20  1  0  0  0  0
 20 21  2  0  0  0  0
 21 22  1  0  0  0  0
 22 23  2  0  0  0  0
 23 24  1  0  0  0  0
M  END
> <NMREDATA_VERSION>
1.1

> <NMREDATA_LEVEL>
0

> <NMREDATA_SOLVENT>
CDCl3

> <NMREDATA_FORMULA>
C17H18BrN2O3P

> <NMREDATA_SMILES>
CCOP(=O)(c1c(nc2n1cccc2)c1ccc(cc1)Br)OCC

> <NMREDATA_ASSIGNMENT>
P2, 7.77, 2

> <NMREDATA_1D_31P>
Larmor=162
7.77, L=P2

$$$$
