
 OpenBabel06112616472D

 44 49  0  0  0  0  0  0  0  0999 V2000
   -8.3337    3.9240    0.0000 C   0  0  0  0  0  0  0  0  0  0  0  0
   -9.1427    3.3362    0.0000 O   0  0  0  0  0  0  0  0  0  0  0  0
   -9.0382    2.3417    0.0000 C   0  0  0  0  0  0  0  0  0  0  0  0
   -8.1246    1.9349    0.0000 C   0  0  0  0  0  0  0  0  0  0  0  0
   -8.0201    0.9404    0.0000 C   0  0  0  0  0  0  0  0  0  0  0  0
   -7.1066    0.5337    0.0000 N   0  0  0  0  0  0  0  0  0  0  0  0
   -7.0020   -0.4608    0.0000 C   0  0  0  0  0  0  0  0  0  0  0  0
   -6.0885   -0.8676    0.0000 N   0  0  0  0  0  0  0  0  0  0  0  0
   -5.2795   -0.2798    0.0000 C   0  0  0  0  0  0  0  0  0  0  0  0
   -4.3659   -0.6865    0.0000 C   0  0  0  0  0  0  0  0  0  0  0  0
   -4.2614   -1.6810    0.0000 N   0  0  0  0  0  0  0  0  0  0  0  0
   -3.3479   -2.0878    0.0000 C   0  0  0  0  0  0  0  0  0  0  0  0
   -3.2433   -3.0823    0.0000 O   0  0  0  0  0  0  0  0  0  0  0  0
   -2.5388   -1.5000    0.0000 C   0  0  0  0  0  0  0  0  0  0  0  0
   -2.5388   -0.5000    0.0000 C   0  0  0  0  0  0  0  0  0  0  0  0
   -1.5878   -0.1910    0.0000 C   0  0  0  0  0  0  0  0  0  0  0  0
   -1.0000   -1.0000    0.0000 C   0  0  0  0  0  0  0  0  0  0  0  0
    0.0000   -1.0000    0.0000 P   0  0  0  0  0  0  0  0  0  0  0  0
    0.0000   -2.0000    0.0000 O   0  0  0  0  0  0  0  0  0  0  0  0
    1.0000   -1.0000    0.0000 C   0  0  0  0  0  0  0  0  0  0  0  0
    1.5000   -0.1340    0.0000 C   0  0  0  0  0  0  0  0  0  0  0  0
    2.5000   -0.1340    0.0000 C   0  0  0  0  0  0  0  0  0  0  0  0
    3.0000   -1.0000    0.0000 C   0  0  0  0  0  0  0  0  0  0  0  0
    2.5000   -1.8660    0.0000 C   0  0  0  0  0  0  0  0  0  0  0  0
    1.5000   -1.8660    0.0000 C   0  0  0  0  0  0  0  0  0  0  0  0
    0.0000    0.0000    0.0000 C   0  0  0  0  0  0  0  0  0  0  0  0
   -0.8660    0.5000    0.0000 C   0  0  0  0  0  0  0  0  0  0  0  0
   -0.8660    1.5000    0.0000 C   0  0  0  0  0  0  0  0  0  0  0  0
    0.0000    2.0000    0.0000 C   0  0  0  0  0  0  0  0  0  0  0  0
    0.8660    1.5000    0.0000 C   0  0  0  0  0  0  0  0  0  0  0  0
    0.8660    0.5000    0.0000 C   0  0  0  0  0  0  0  0  0  0  0  0
   -1.5878   -1.8090    0.0000 O   0  0  0  0  0  0  0  0  0  0  0  0
   -5.0704   -2.2688    0.0000 C   0  0  0  0  0  0  0  0  0  0  0  0
   -5.9840   -1.8621    0.0000 C   0  0  0  0  0  0  0  0  0  0  0  0
   -7.8111   -1.0486    0.0000 N   0  0  0  0  0  0  0  0  0  0  0  0
   -8.7246   -0.6419    0.0000 C   0  0  0  0  0  0  0  0  0  0  0  0
   -9.5336   -1.2297    0.0000 N   0  0  0  0  0  0  0  0  0  0  0  0
  -10.4472   -0.8229    0.0000 C   0  0  0  0  0  0  0  0  0  0  0  0
   -9.4291   -2.2242    0.0000 C   0  0  0  0  0  0  0  0  0  0  0  0
   -8.8291    0.3526    0.0000 C   0  0  0  0  0  0  0  0  0  0  0  0
   -9.7427    0.7594    0.0000 C   0  0  0  0  0  0  0  0  0  0  0  0
   -9.8472    1.7539    0.0000 C   0  0  0  0  0  0  0  0  0  0  0  0
  -10.7608    2.1606    0.0000 O   0  0  0  0  0  0  0  0  0  0  0  0
  -10.8653    3.1552    0.0000 C   0  0  0  0  0  0  0  0  0  0  0  0
  1  2  1  0  0  0  0
  2  3  1  0  0  0  0
  3 42  2  0  0  0  0
  3  4  1  0  0  0  0
  4  5  2  0  0  0  0
  5 40  1  0  0  0  0
  5  6  1  0  0  0  0
  6  7  2  0  0  0  0
  7  8  1  0  0  0  0
  7 35  1  0  0  0  0
  8 34  1  0  0  0  0
  8  9  1  0  0  0  0
  9 10  1  0  0  0  0
 10 11  1  0  0  0  0
 11 12  1  0  0  0  0
 11 33  1  0  0  0  0
 12 13  2  0  0  0  0
 12 14  1  0  0  0  0
 14 32  1  0  0  0  0
 14 15  2  0  0  0  0
 15 16  1  0  0  0  0
 16 17  2  0  0  0  0
 17 18  1  0  0  0  0
 17 32  1  0  0  0  0
 18 19  2  0  0  0  0
 18 20  1  0  0  0  0
 18 26  1  0  0  0  0
 20 25  2  0  0  0  0
 20 21  1  0  0  0  0
 21 22  2  0  0  0  0
 22 23  1  0  0  0  0
 23 24  2  0  0  0  0
 24 25  1  0  0  0  0
 26 31  2  0  0  0  0
 26 27  1  0  0  0  0
 27 28  2  0  0  0  0
 28 29  1  0  0  0  0
 29 30  2  0  0  0  0
 30 31  1  0  0  0  0
 33 34  1  0  0  0  0
 35 36  2  0  0  0  0
 36 37  1  0  0  0  0
 36 40  1  0  0  0  0
 37 38  1  0  0  0  0
 37 39  1  0  0  0  0
 40 41  2  0  0  0  0
 41 42  1  0  0  0  0
 42 43  1  0  0  0  0
 43 44  1  0  0  0  0
M  END
> <NMREDATA_VERSION>
1.1

> <NMREDATA_LEVEL>
0

> <NMREDATA_SOLVENT>
CDCl3

> <NMREDATA_FORMULA>
C33H34N5O5P

> <NMREDATA_SMILES>
COc1cc2nc(nc(c2cc1OC)N(C)C)N1CCN(CC1)C(=O)c1ccc(o1)P(=O)(c1ccccc1)c1ccccc1

> <NMREDATA_ASSIGNMENT>
P18, 16.45, 18

> <NMREDATA_1D_31P>
Larmor=162
16.45, L=P18

$$$$
