
 OpenBabel06112616462D

 46 47  0  0  1  0  0  0  0  0999 V2000
    3.7563   -2.2541    0.0000 C    0  0  0  0  0  0  0  0  0  0  0  0
    4.5703   -2.7241    0.0000 C    0  0  0  0  0  0  0  0  0  0  0  0
    4.5703   -3.6641    0.0000 C    0  0  1  0  0  0  0  0  0  0  0  0
    7.8266   -5.5441    0.0000 C    0  0  0  0  0  0  0  0  0  0  0  0
    7.8266   -6.4841    0.0000 P    0  3  0  0  0  0  0  0  0  0  0  0
    8.7666   -6.4841    0.0000 C    0  0  0  0  0  0  0  0  0  0  0  0
    9.2366   -5.6700    0.0000 C    0  0  0  0  0  0  0  0  0  0  0  0
    8.7666   -4.8559    0.0000 C    0  0  0  0  0  0  0  0  0  0  0  0
    7.8266   -4.8559    0.0000 F    0  0  0  0  0  0  0  0  0  0  0  0
    9.2366   -4.0419    0.0000 C    0  0  0  0  0  0  0  0  0  0  0  0
    8.7666   -3.2278    0.0000 F    0  0  0  0  0  0  0  0  0  0  0  0
   10.1766   -4.0419    0.0000 C    0  0  0  0  0  0  0  0  0  0  0  0
   10.6466   -3.2278    0.0000 F    0  0  0  0  0  0  0  0  0  0  0  0
   10.6466   -4.8559    0.0000 C    0  0  0  0  0  0  0  0  0  0  0  0
   11.5866   -4.8559    0.0000 F    0  0  0  0  0  0  0  0  0  0  0  0
   10.1766   -5.6700    0.0000 C    0  0  0  0  0  0  0  0  0  0  0  0
   10.6466   -6.4841    0.0000 F    0  0  0  0  0  0  0  0  0  0  0  0
    7.8266   -7.4241    0.0000 C    0  0  0  0  0  0  0  0  0  0  0  0
    7.0125   -7.8941    0.0000 C    0  0  0  0  0  0  0  0  0  0  0  0
    7.0125   -8.8341    0.0000 C    0  0  0  0  0  0  0  0  0  0  0  0
    7.8266   -9.3041    0.0000 C    0  0  0  0  0  0  0  0  0  0  0  0
    8.6406   -8.8341    0.0000 C    0  0  0  0  0  0  0  0  0  0  0  0
    8.6406   -7.8941    0.0000 C    0  0  0  0  0  0  0  0  0  0  0  0
    6.8866   -6.4841    0.0000 C    0  0  0  0  0  0  0  0  0  0  0  0
    6.4166   -5.6700    0.0000 C    0  0  0  0  0  0  0  0  0  0  0  0
    5.4766   -5.6700    0.0000 C    0  0  0  0  0  0  0  0  0  0  0  0
    5.0066   -6.4841    0.0000 C    0  0  0  0  0  0  0  0  0  0  0  0
    5.4766   -7.2981    0.0000 C    0  0  0  0  0  0  0  0  0  0  0  0
    6.4166   -7.2981    0.0000 C    0  0  0  0  0  0  0  0  0  0  0  0
    3.7563   -4.1341    0.0000 N    0  0  0  0  0  0  0  0  0  0  0  0
    2.9422   -3.6641    0.0000 C    0  0  0  0  0  0  0  0  0  0  0  0
    2.1281   -4.1341    0.0000 C    0  0  1  0  0  0  0  0  0  0  0  0
    2.1281   -5.0741    0.0000 C    0  0  0  0  0  0  0  0  0  0  0  0
    2.9422   -5.5441    0.0000 C    0  0  0  0  0  0  0  0  0  0  0  0
    1.3141   -5.5441    0.0000 C    0  0  0  0  0  0  0  0  0  0  0  0
    1.3141   -3.6641    0.0000 N    0  0  0  0  0  0  0  0  0  0  0  0
    1.3141   -2.7241    0.0000 C    0  0  0  0  0  0  0  0  0  0  0  0
    0.5000   -2.2541    0.0000 O    0  0  0  0  0  0  0  0  0  0  0  0
    2.1281   -2.2541    0.0000 O    0  0  0  0  0  0  0  0  0  0  0  0
    2.1281   -1.3141    0.0000 C    0  0  0  0  0  0  0  0  0  0  0  0
    2.5981   -0.5000    0.0000 C    0  0  0  0  0  0  0  0  0  0  0  0
    3.0681   -1.3141    0.0000 C    0  0  0  0  0  0  0  0  0  0  0  0
    1.3141   -0.8441    0.0000 C    0  0  0  0  0  0  0  0  0  0  0  0
    2.9422   -2.7241    0.0000 O    0  0  0  0  0  0  0  0  0  0  0  0
    5.3844   -2.2541    0.0000 C    0  0  0  0  0  0  0  0  0  0  0  0
   12.5866   -0.5000    0.0000 Br   0  5  0  0  0  0  0  0  0  0  0  0
  1  2  1  0  0  0  0
  2  3  1  0  0  0  0
  2 45  1  0  0  0  0
  3  4  1  1  0  0  0
  3 30  1  0  0  0  0
  4  5  1  0  0  0  0
  5  6  1  0  0  0  0
  5 18  1  0  0  0  0
  5 24  1  0  0  0  0
  6  7  1  0  0  0  0
  7 16  2  0  0  0  0
  7  8  1  0  0  0  0
  8  9  1  0  0  0  0
  8 10  2  0  0  0  0
 10 11  1  0  0  0  0
 10 12  1  0  0  0  0
 12 13  1  0  0  0  0
 12 14  2  0  0  0  0
 14 15  1  0  0  0  0
 14 16  1  0  0  0  0
 16 17  1  0  0  0  0
 18 23  2  0  0  0  0
 18 19  1  0  0  0  0
 19 20  2  0  0  0  0
 20 21  1  0  0  0  0
 21 22  2  0  0  0  0
 22 23  1  0  0  0  0
 24 29  2  0  0  0  0
 24 25  1  0  0  0  0
 25 26  2  0  0  0  0
 26 27  1  0  0  0  0
 27 28  2  0  0  0  0
 28 29  1  0  0  0  0
 30 31  1  0  0  0  0
 31 44  2  0  0  0  0
 32 31  1  1  0  0  0
 32 33  1  0  0  0  0
 32 36  1  0  0  0  0
 33 34  1  0  0  0  0
 33 35  1  0  0  0  0
 36 37  1  0  0  0  0
 37 38  2  0  0  0  0
 37 39  1  0  0  0  0
 39 40  1  0  0  0  0
 40 41  1  0  0  0  0
 40 42  1  0  0  0  0
 40 43  1  0  0  0  0
M  END
> <NMREDATA_VERSION>
1.1

> <NMREDATA_LEVEL>
0

> <NMREDATA_SOLVENT>
CDCl3

> <NMREDATA_FORMULA>
C34H41BrF5N2O3P

> <NMREDATA_SMILES>
CC([C@@H](CP(c1ccccc1)(c1ccccc1)Cc1c(F)c(F)c(c(c1F)F)F)NC(=O)[C@@H](C(C)C)NC(=O)OC(C)(C)C)C.Br

> <NMREDATA_ASSIGNMENT>
P5, 28.40, 5

> <NMREDATA_1D_31P>
Larmor=162
28.40, L=P5

$$$$
