
 OpenBabel06112616462D

 35 40  0  0  0  0  0  0  0  0999 V2000
    0.3660    2.3660    0.0000 C   0  0  0  0  0  0  0  0  0  0  0  0
    0.8660    1.5000    0.0000 C   0  0  0  0  0  0  0  0  0  0  0  0
   -0.1340    1.5000    0.0000 C   0  0  0  0  0  0  0  0  0  0  0  0
    1.7321    2.0000    0.0000 C   0  0  0  0  0  0  0  0  0  0  0  0
    0.8660    0.5000    0.0000 C   0  0  0  0  0  0  0  0  0  0  0  0
    1.7321    0.0000    0.0000 C   0  0  0  0  0  0  0  0  0  0  0  0
    1.7321   -1.0000    0.0000 C   0  0  0  0  0  0  0  0  0  0  0  0
    2.5981   -1.5000    0.0000 O   0  0  0  0  0  0  0  0  0  0  0  0
    3.4641   -1.0000    0.0000 P   0  0  0  0  0  0  0  0  0  0  0  0
    4.0169   -1.4638    0.0000 O   0  0  0  0  0  0  0  0  0  0  0  0
    4.7384   -1.4638    0.0000 C   0  0  0  0  0  0  0  0  0  0  0  0
    5.1768   -2.3626    0.0000 C   0  0  0  0  0  0  0  0  0  0  0  0
    6.1744   -2.4324    0.0000 C   0  0  0  0  0  0  0  0  0  0  0  0
    6.7336   -1.6033    0.0000 C   0  0  0  0  0  0  0  0  0  0  0  0
    6.2952   -0.7045    0.0000 C   0  0  0  0  0  0  0  0  0  0  0  0
    5.2976   -0.6348    0.0000 C   0  0  0  0  0  0  0  0  0  0  0  0
    5.0557    0.3355    0.0000 C   0  0  0  0  0  0  0  0  0  0  0  0
    5.9038    0.8654    0.0000 C   0  0  0  0  0  0  0  0  0  0  0  0
    6.6698    0.2226    0.0000 C   0  0  0  0  0  0  0  0  0  0  0  0
    5.5000    0.9041    0.0000 C   0  0  0  0  0  0  0  0  0  0  0  0
    5.0965    1.5023    0.0000 C   0  0  0  0  0  0  0  0  0  0  0  0
    4.4028    1.3034    0.0000 C   0  0  0  0  0  0  0  0  0  0  0  0
    3.9132    1.5127    0.0000 C   0  0  0  0  0  0  0  0  0  0  0  0
    3.4443    1.2604    0.0000 C   0  0  0  0  0  0  0  0  0  0  0  0
    3.3493    0.7365    0.0000 C   0  0  0  0  0  0  0  0  0  0  0  0
    3.6996    0.3355    0.0000 C   0  0  0  0  0  0  0  0  0  0  0  0
    4.3776    0.5823    0.0000 C   0  0  0  0  0  0  0  0  0  0  0  0
    3.3388   -0.2894    0.0000 O   0  0  0  0  0  0  0  0  0  0  0  0
    0.8660   -1.5000    0.0000 C   0  0  0  0  0  0  0  0  0  0  0  0
    0.0000   -1.0000    0.0000 C   0  0  0  0  0  0  0  0  0  0  0  0
   -0.8660   -1.5000    0.0000 C   0  0  0  0  0  0  0  0  0  0  0  0
   -1.3660   -2.3660    0.0000 C   0  0  0  0  0  0  0  0  0  0  0  0
   -0.3660   -2.3660    0.0000 C   0  0  0  0  0  0  0  0  0  0  0  0
   -1.7321   -1.0000    0.0000 C   0  0  0  0  0  0  0  0  0  0  0  0
    0.0000    0.0000    0.0000 C   0  0  0  0  0  0  0  0  0  0  0  0
  1  2  1  0  0  0  0
  2  3  1  0  0  0  0
  2  4  1  0  0  0  0
  2  5  1  0  0  0  0
  5 35  2  0  0  0  0
  5  6  1  0  0  0  0
  6  7  2  0  0  0  0
  7  8  1  0  0  0  0
  7 29  1  0  0  0  0
  8  9  1  0  0  0  0
  9 28  1  0  0  0  0
  9 10  1  0  0  0  0
 10 11  1  0  0  0  0
 11 16  2  0  0  0  0
 11 12  1  0  0  0  0
 12 13  2  0  0  0  0
 13 14  1  0  0  0  0
 14 15  2  0  0  0  0
 15 19  1  0  0  0  0
 15 16  1  0  0  0  0
 16 17  1  0  0  0  0
 17 27  1  0  0  0  0
 17 18  1  0  0  0  0
 17 20  1  0  0  0  0
 18 19  1  0  0  0  0
 20 21  1  0  0  0  0
 21 22  1  0  0  0  0
 22 27  2  0  0  0  0
 22 23  1  0  0  0  0
 23 24  2  0  0  0  0
 24 25  1  0  0  0  0
 25 26  2  0  0  0  0
 26 27  1  0  0  0  0
 26 28  1  0  0  0  0
 29 30  2  0  0  0  0
 30 31  1  0  0  0  0
 30 35  1  0  0  0  0
 31 32  1  0  0  0  0
 31 33  1  0  0  0  0
 31 34  1  0  0  0  0
M  END
> <NMREDATA_VERSION>
1.1

> <NMREDATA_LEVEL>
0

> <NMREDATA_SOLVENT>
CDCl3

> <NMREDATA_FORMULA>
C31H35O3P

> <NMREDATA_SMILES>
CC(c1cc(OP2Oc3cccc4c3C3(c5c(O2)cccc5CC3)CC4)cc(c1)C(C)(C)C)(C)C

> <NMREDATA_ASSIGNMENT>
P9, 124.70, 9

> <NMREDATA_1D_31P>
Larmor=161
124.70, L=P9

$$$$
