
 OpenBabel06112616442D

 33 36  0  0  1  0  0  0  0  0999 V2000
    2.1238   -1.7918    0.0000 C    0  0  0  0  0  0  0  0  0  0  0  0
    1.9794   -0.8801    0.0000 C    0  0  0  0  0  0  0  0  0  0  0  0
    2.6967   -0.2992    0.0000 C    0  0  0  0  0  0  0  0  0  0  0  0
    1.1176   -0.5493    0.0000 O    0  0  0  0  0  0  0  0  0  0  0  0
    0.4002   -1.1302    0.0000 C    0  0  0  0  0  0  0  0  0  0  0  0
   -0.4615   -0.7994    0.0000 C    0  0  1  0  0  0  0  0  0  0  0  0
   -0.9572   -1.5781    0.0000 C    0  0  0  0  0  0  0  0  0  0  0  0
   -1.3644   -0.6075    0.0000 C    0  0  2  0  0  0  0  0  0  0  0  0
   -2.2673   -0.7994    0.0000 C    0  0  0  0  0  0  0  0  0  0  0  0
   -2.5526   -1.6773    0.0000 C    0  0  0  0  0  0  0  0  0  0  0  0
   -3.4555   -1.8692    0.0000 C    0  0  0  0  0  0  0  0  0  0  0  0
   -4.0732   -1.1832    0.0000 C    0  0  0  0  0  0  0  0  0  0  0  0
   -4.9761   -1.3752    0.0000 Cl   0  0  0  0  0  0  0  0  0  0  0  0
   -3.7879   -0.3053    0.0000 C    0  0  0  0  0  0  0  0  0  0  0  0
   -2.8850   -0.1134    0.0000 C    0  0  0  0  0  0  0  0  0  0  0  0
   -1.6497   -1.4854    0.0000 C    0  0  0  0  0  0  0  0  0  0  0  0
   -1.4609    0.3105    0.0000 N    0  0  0  0  0  0  0  0  0  0  0  0
   -4.6586    2.1567    0.0000 P    0  0  0  0  0  0  0  0  0  0  0  0
   -4.6586    3.0798    0.0000 C    0  0  0  0  0  0  0  0  0  0  0  0
   -5.4580    3.5413    0.0000 C    0  0  0  0  0  0  0  0  0  0  0  0
   -5.4580    4.4644    0.0000 C    0  0  0  0  0  0  0  0  0  0  0  0
   -4.6586    4.9259    0.0000 C    0  0  0  0  0  0  0  0  0  0  0  0
   -3.8592    4.4644    0.0000 C    0  0  0  0  0  0  0  0  0  0  0  0
   -3.8592    3.5413    0.0000 C    0  0  0  0  0  0  0  0  0  0  0  0
   -5.4580    1.6951    0.0000 C    0  0  0  0  0  0  0  0  0  0  0  0
   -5.4580    0.7721    0.0000 C    0  0  0  0  0  0  0  0  0  0  0  0
   -6.2574    0.3105    0.0000 C    0  0  0  0  0  0  0  0  0  0  0  0
   -7.0568    0.7721    0.0000 C    0  0  0  0  0  0  0  0  0  0  0  0
   -7.0568    1.6951    0.0000 C    0  0  0  0  0  0  0  0  0  0  0  0
   -6.2574    2.1567    0.0000 C    0  0  0  0  0  0  0  0  0  0  0  0
   -0.6177    0.6860    0.0000 C    0  0  0  0  0  0  0  0  0  0  0  0
    0.0000    0.0000    0.0000 N    0  0  0  0  0  0  0  0  0  0  0  0
    0.5446   -2.0419    0.0000 O    0  0  0  0  0  0  0  0  0  0  0  0
  1  2  1  0  0  0  0
  2  3  1  0  0  0  0
  2  4  1  0  0  0  0
  4  5  1  0  0  0  0
  5  6  1  0  0  0  0
  5 33  2  0  0  0  0
  6 32  1  0  0  0  0
  6  7  1  6  0  0  0
  6  8  1  0  0  0  0
  8  9  1  0  0  0  0
  8 16  1  6  0  0  0
  8 17  1  0  0  0  0
  9 15  2  0  0  0  0
  9 10  1  0  0  0  0
 10 11  2  0  0  0  0
 11 12  1  0  0  0  0
 12 13  1  0  0  0  0
 12 14  2  0  0  0  0
 14 15  1  0  0  0  0
 17 18  1  0  0  0  0
 17 31  1  0  0  0  0
 18 19  1  0  0  0  0
 18 25  1  0  0  0  0
 19 24  2  0  0  0  0
 19 20  1  0  0  0  0
 20 21  2  0  0  0  0
 21 22  1  0  0  0  0
 22 23  2  0  0  0  0
 23 24  1  0  0  0  0
 25 30  2  0  0  0  0
 25 26  1  0  0  0  0
 26 27  2  0  0  0  0
 27 28  1  0  0  0  0
 28 29  2  0  0  0  0
 29 30  1  0  0  0  0
 31 32  2  0  0  0  0
M  END
> <NMREDATA_VERSION>
1.1

> <NMREDATA_LEVEL>
0

> <NMREDATA_SOLVENT>
CDCl3

> <NMREDATA_FORMULA>
C27H28ClN2O2P

> <NMREDATA_SMILES>
CC(OC(=O)[C@]1(C)N=CN([C@]1(C)c1ccc(cc1)Cl)P(c1ccccc1)c1ccccc1)C

> <NMREDATA_ASSIGNMENT>
P18, 22.10, 18

> <NMREDATA_1D_31P>
Larmor=121
22.10, L=P18

$$$$
