
 OpenBabel06112616422D

 41 45  0  0  0  0  0  0  0  0999 V2000
    0.0000   -1.0000    0.0000 P   0  0  0  0  0  0  0  0  0  0  0  0
   -1.0000   -1.0000    0.0000 C   0  0  0  0  0  0  0  0  0  0  0  0
   -1.5878   -1.8090    0.0000 C   0  0  0  0  0  0  0  0  0  0  0  0
   -1.2788   -2.7601    0.0000 N   0  0  0  0  0  0  0  0  0  0  0  0
   -1.9479   -3.5032    0.0000 C   0  0  0  0  0  0  0  0  0  0  0  0
   -1.6389   -4.4543    0.0000 O   0  0  0  0  0  0  0  0  0  0  0  0
   -2.9260   -3.2953    0.0000 C   0  0  0  0  0  0  0  0  0  0  0  0
   -3.6692   -2.6262    0.0000 C   0  0  0  0  0  0  0  0  0  0  0  0
   -2.7181   -2.3172    0.0000 C   0  0  0  0  0  0  0  0  0  0  0  0
   -3.5952   -4.0385    0.0000 C   0  0  0  0  0  0  0  0  0  0  0  0
   -4.5733   -3.8305    0.0000 C   0  0  0  0  0  0  0  0  0  0  0  0
   -5.2425   -4.5737    0.0000 C   0  0  0  0  0  0  0  0  0  0  0  0
   -6.2206   -4.3658    0.0000 O   0  0  0  0  0  0  0  0  0  0  0  0
   -6.8897   -5.1089    0.0000 C   0  0  0  0  0  0  0  0  0  0  0  0
   -7.8679   -4.9010    0.0000 C   0  0  0  0  0  0  0  0  0  0  0  0
   -8.5370   -5.6442    0.0000 C   0  0  0  0  0  0  0  0  0  0  0  0
   -9.5152   -5.4362    0.0000 C   0  0  0  0  0  0  0  0  0  0  0  0
   -8.2280   -6.5952    0.0000 C   0  0  0  0  0  0  0  0  0  0  0  0
   -7.2498   -6.8031    0.0000 C   0  0  0  0  0  0  0  0  0  0  0  0
   -6.5807   -6.0600    0.0000 C   0  0  0  0  0  0  0  0  0  0  0  0
   -5.6026   -6.2679    0.0000 C   0  0  0  0  0  0  0  0  0  0  0  0
   -2.5388   -1.5000    0.0000 C   0  0  0  0  0  0  0  0  0  0  0  0
   -3.4049   -2.0000    0.0000 C   0  0  0  0  0  0  0  0  0  0  0  0
   -4.2709   -1.5000    0.0000 C   0  0  0  0  0  0  0  0  0  0  0  0
   -4.2709   -0.5000    0.0000 C   0  0  0  0  0  0  0  0  0  0  0  0
   -3.4049    0.0000    0.0000 C   0  0  0  0  0  0  0  0  0  0  0  0
   -2.5388   -0.5000    0.0000 C   0  0  0  0  0  0  0  0  0  0  0  0
   -1.5878   -0.1910    0.0000 N   0  0  0  0  0  0  0  0  0  0  0  0
    0.0000   -2.0000    0.0000 C   0  0  0  0  0  0  0  0  0  0  0  0
    0.8660   -2.5000    0.0000 C   0  0  0  0  0  0  0  0  0  0  0  0
    0.8660   -3.5000    0.0000 C   0  0  0  0  0  0  0  0  0  0  0  0
    0.0000   -4.0000    0.0000 C   0  0  0  0  0  0  0  0  0  0  0  0
   -0.8660   -3.5000    0.0000 C   0  0  0  0  0  0  0  0  0  0  0  0
   -0.8660   -2.5000    0.0000 C   0  0  0  0  0  0  0  0  0  0  0  0
    1.0000   -1.0000    0.0000 O   0  0  0  0  0  0  0  0  0  0  0  0
    0.0000    0.0000    0.0000 C   0  0  0  0  0  0  0  0  0  0  0  0
   -0.8660    0.5000    0.0000 C   0  0  0  0  0  0  0  0  0  0  0  0
   -0.8660    1.5000    0.0000 C   0  0  0  0  0  0  0  0  0  0  0  0
    0.0000    2.0000    0.0000 C   0  0  0  0  0  0  0  0  0  0  0  0
    0.8660    1.5000    0.0000 C   0  0  0  0  0  0  0  0  0  0  0  0
    0.8660    0.5000    0.0000 C   0  0  0  0  0  0  0  0  0  0  0  0
  1  2  1  0  0  0  0
  1 29  1  0  0  0  0
  1 35  2  0  0  0  0
  1 36  1  0  0  0  0
  2 28  1  0  0  0  0
  2  3  2  0  0  0  0
  3  4  1  0  0  0  0
  3 22  1  0  0  0  0
  4  5  1  0  0  0  0
  5  6  2  0  0  0  0
  5  7  1  0  0  0  0
  7  8  1  0  0  0  0
  7  9  1  0  0  0  0
  7 10  1  0  0  0  0
 10 11  1  0  0  0  0
 11 12  1  0  0  0  0
 12 13  1  0  0  0  0
 13 14  1  0  0  0  0
 14 20  2  0  0  0  0
 14 15  1  0  0  0  0
 15 16  2  0  0  0  0
 16 17  1  0  0  0  0
 16 18  1  0  0  0  0
 18 19  2  0  0  0  0
 19 20  1  0  0  0  0
 20 21  1  0  0  0  0
 22 27  2  0  0  0  0
 22 23  1  0  0  0  0
 23 24  2  0  0  0  0
 24 25  1  0  0  0  0
 25 26  2  0  0  0  0
 26 27  1  0  0  0  0
 27 28  1  0  0  0  0
 29 34  2  0  0  0  0
 29 30  1  0  0  0  0
 30 31  2  0  0  0  0
 31 32  1  0  0  0  0
 32 33  2  0  0  0  0
 33 34  1  0  0  0  0
 36 41  2  0  0  0  0
 36 37  1  0  0  0  0
 37 38  2  0  0  0  0
 38 39  1  0  0  0  0
 39 40  2  0  0  0  0
 40 41  1  0  0  0  0
M  END
> <NMREDATA_VERSION>
1.1

> <NMREDATA_LEVEL>
0

> <NMREDATA_SOLVENT>
CDCl3

> <NMREDATA_FORMULA>
C35H37N2O3P

> <NMREDATA_SMILES>
Cc1ccc(c(c1)OCCCC(C(=O)Nc1c2ccccc2[nH]c1P(=O)(c1ccccc1)c1ccccc1)(C)C)C

> <NMREDATA_ASSIGNMENT>
P1, 23.10, 1

> <NMREDATA_1D_31P>
Larmor=202
23.10, L=P1

$$$$
