
 OpenBabel06112616462D

 45 49  0  0  0  0  0  0  0  0999 V2000
   -1.7321   -1.0000    0.0000 C   0  0  0  0  0  0  0  0  0  0  0  0
   -1.7321    0.0000    0.0000 O   0  0  0  0  0  0  0  0  0  0  0  0
   -0.8660    0.5000    0.0000 C   0  0  0  0  0  0  0  0  0  0  0  0
   -0.8660    1.5000    0.0000 C   0  0  0  0  0  0  0  0  0  0  0  0
    0.0000    2.0000    0.0000 C   0  0  0  0  0  0  0  0  0  0  0  0
    0.0000    3.0000    0.0000 C   0  0  0  0  0  0  0  0  0  0  0  0
   -0.8660    3.5000    0.0000 N   0  0  0  0  0  0  0  0  0  0  0  0
   -1.7321    3.0000    0.0000 N   0  0  0  0  0  0  0  0  0  0  0  0
   -2.5981    3.5000    0.0000 C   0  0  0  0  0  0  0  0  0  0  0  0
   -3.4641    3.0000    0.0000 C   0  0  0  0  0  0  0  0  0  0  0  0
   -4.3301    3.5000    0.0000 C   0  0  0  0  0  0  0  0  0  0  0  0
   -4.3301    4.5000    0.0000 C   0  0  0  0  0  0  0  0  0  0  0  0
   -3.4641    5.0000    0.0000 C   0  0  0  0  0  0  0  0  0  0  0  0
   -2.5981    4.5000    0.0000 C   0  0  0  0  0  0  0  0  0  0  0  0
    0.8660    3.5000    0.0000 P   0  0  3  0  0  0  0  0  0  0  0  0
    0.9706    4.4945    0.0000 C   0  0  0  0  0  0  0  0  0  0  0  0
    0.2274    5.1637    0.0000 C   0  0  0  0  0  0  0  0  0  0  0  0
   -0.7236    4.8546    0.0000 C   0  0  0  0  0  0  0  0  0  0  0  0
   -1.4668    5.5238    0.0000 C   0  0  0  0  0  0  0  0  0  0  0  0
   -2.4178    5.2147    0.0000 O   0  0  0  0  0  0  0  0  0  0  0  0
   -3.1610    5.8839    0.0000 C   0  0  0  0  0  0  0  0  0  0  0  0
   -1.2589    6.5019    0.0000 C   0  0  0  0  0  0  0  0  0  0  0  0
   -2.0020    7.1710    0.0000 O   0  0  0  0  0  0  0  0  0  0  0  0
   -1.7941    8.1492    0.0000 C   0  0  0  0  0  0  0  0  0  0  0  0
   -0.3078    6.8109    0.0000 C   0  0  0  0  0  0  0  0  0  0  0  0
   -0.0999    7.7891    0.0000 O   0  0  0  0  0  0  0  0  0  0  0  0
   -0.8431    8.4582    0.0000 C   0  0  0  0  0  0  0  0  0  0  0  0
    0.4353    6.1418    0.0000 C   0  0  0  0  0  0  0  0  0  0  0  0
    1.9487    4.7024    0.0000 N   0  0  0  0  0  0  0  0  0  0  0  0
    2.4487    3.8364    0.0000 N   0  0  0  0  0  0  0  0  0  0  0  0
    3.4432    3.7319    0.0000 C   0  0  0  0  0  0  0  0  0  0  0  0
    4.0310    4.5409    0.0000 C   0  0  0  0  0  0  0  0  0  0  0  0
    5.0255    4.4364    0.0000 C   0  0  0  0  0  0  0  0  0  0  0  0
    5.4323    3.5228    0.0000 C   0  0  0  0  0  0  0  0  0  0  0  0
    4.8445    2.7138    0.0000 C   0  0  0  0  0  0  0  0  0  0  0  0
    3.8500    2.8183    0.0000 C   0  0  0  0  0  0  0  0  0  0  0  0
    1.7796    3.0933    0.0000 C   0  0  0  0  0  0  0  0  0  0  0  0
    1.9875    2.1151    0.0000 O   0  0  0  0  0  0  0  0  0  0  0  0
    0.8660    1.5000    0.0000 C   0  0  0  0  0  0  0  0  0  0  0  0
    0.8660    0.5000    0.0000 C   0  0  0  0  0  0  0  0  0  0  0  0
    1.7321    0.0000    0.0000 O   0  0  0  0  0  0  0  0  0  0  0  0
    1.7321   -1.0000    0.0000 C   0  0  0  0  0  0  0  0  0  0  0  0
    0.0000    0.0000    0.0000 C   0  0  0  0  0  0  0  0  0  0  0  0
    0.0000   -1.0000    0.0000 O   0  0  0  0  0  0  0  0  0  0  0  0
   -0.8660   -1.5000    0.0000 C   0  0  0  0  0  0  0  0  0  0  0  0
  1  2  1  0  0  0  0
  2  3  1  0  0  0  0
  3 43  2  0  0  0  0
  3  4  1  0  0  0  0
  4  5  2  0  0  0  0
  5  6  1  0  0  0  0
  5 39  1  0  0  0  0
  6  7  2  0  0  0  0
  6 15  1  0  0  0  0
  7  8  1  0  0  0  0
  8  9  1  0  0  0  0
  9 14  2  0  0  0  0
  9 10  1  0  0  0  0
 10 11  2  0  0  0  0
 11 12  1  0  0  0  0
 12 13  2  0  0  0  0
 13 14  1  0  0  0  0
 15 37  1  0  0  0  0
 15 16  1  0  0  0  0
 16 17  1  0  0  0  0
 16 29  2  0  0  0  0
 17 28  2  0  0  0  0
 17 18  1  0  0  0  0
 18 19  2  0  0  0  0
 19 20  1  0  0  0  0
 19 22  1  0  0  0  0
 20 21  1  0  0  0  0
 22 23  1  0  0  0  0
 22 25  2  0  0  0  0
 23 24  1  0  0  0  0
 25 26  1  0  0  0  0
 25 28  1  0  0  0  0
 26 27  1  0  0  0  0
 29 30  1  0  0  0  0
 30 31  1  0  0  0  0
 30 37  1  0  0  0  0
 31 36  2  0  0  0  0
 31 32  1  0  0  0  0
 32 33  2  0  0  0  0
 33 34  1  0  0  0  0
 34 35  2  0  0  0  0
 35 36  1  0  0  0  0
 37 38  2  0  0  0  0
 39 40  2  0  0  0  0
 40 41  1  0  0  0  0
 40 43  1  0  0  0  0
 41 42  1  0  0  0  0
 43 44  1  0  0  0  0
 44 45  1  0  0  0  0
M  END
> <NMREDATA_VERSION>
1.1

> <NMREDATA_LEVEL>
0

> <NMREDATA_SOLVENT>
CDCl3

> <NMREDATA_FORMULA>
C33H33N4O7P

> <NMREDATA_SMILES>
COc1c(OC)cc(cc1OC)/C(=N\Nc1ccccc1)/p1c(nn(c1=O)c1ccccc1)c1cc(OC)c(c(c1)OC)OC

> <NMREDATA_ASSIGNMENT>
P15, -22.77, 15

> <NMREDATA_1D_31P>
Larmor=162
-22.77, L=P15

$$$$
