
 OpenBabel06112616442D

 41 47  0  0  0  0  0  0  0  0999 V2000
   -1.1450   -2.1459    0.0000 O   0  0  0  0  0  0  0  0  0  0  0  0
   -2.0569   -2.4422    0.0000 C   0  0  0  0  0  0  0  0  0  0  0  0
   -2.2562   -3.3801    0.0000 C   0  0  0  0  0  0  0  0  0  0  0  0
   -2.7694   -1.8006    0.0000 C   0  0  0  0  0  0  0  0  0  0  0  0
   -0.4324   -2.7874    0.0000 C   0  0  0  0  0  0  0  0  0  0  0  0
    0.4794   -2.4911    0.0000 C   0  0  0  0  0  0  0  0  0  0  0  0
    1.4382   -0.8304    0.0000 C   0  0  0  0  0  0  0  0  0  0  0  0
    2.3974   -0.8305    0.0000 C   0  0  0  0  0  0  0  0  0  0  0  0
    2.8768   -1.6609    0.0000 O   0  0  0  0  0  0  0  0  0  0  0  0
    3.8361   -1.6611    0.0000 C   0  0  0  0  0  0  0  0  0  0  0  0
    4.3157   -0.8302    0.0000 C   0  0  0  0  0  0  0  0  0  0  0  0
    2.8771    0.0004    0.0000 C   0  0  0  0  0  0  0  0  0  0  0  0
    2.3973    0.8310    0.0000 C   0  0  0  0  0  0  0  0  0  0  0  0
    1.4385    0.8309    0.0000 C   0  0  0  0  0  0  0  0  0  0  0  0
    0.9588    0.0000    0.0000 C   0  0  0  0  0  0  0  0  0  0  0  0
    0.0000    0.0000    0.0000 P   0  0  0  0  0  0  0  0  0  0  0  0
   -0.2963   -0.9119    0.0000 O   0  0  0  0  0  0  0  0  0  0  0  0
   -0.9119    0.2963    0.0000 C   0  0  0  0  0  0  0  0  0  0  0  0
   -1.1112    1.2341    0.0000 C   0  0  0  0  0  0  0  0  0  0  0  0
   -2.0231    1.5304    0.0000 C   0  0  0  0  0  0  0  0  0  0  0  0
   -2.7356    0.8889    0.0000 C   0  0  0  0  0  0  0  0  0  0  0  0
   -2.5363   -0.0490    0.0000 C   0  0  0  0  0  0  0  0  0  0  0  0
   -1.6244   -0.3453    0.0000 C   0  0  0  0  0  0  0  0  0  0  0  0
    0.2963    0.9119    0.0000 C   0  0  0  0  0  0  0  0  0  0  0  0
   -0.3453    1.6244    0.0000 C   0  0  0  0  0  0  0  0  0  0  0  0
   -0.0490    2.5363    0.0000 C   0  0  0  0  0  0  0  0  0  0  0  0
    0.8889    2.7356    0.0000 C   0  0  0  0  0  0  0  0  0  0  0  0
    1.5304    2.0231    0.0000 C   0  0  0  0  0  0  0  0  0  0  0  0
    0.5097    1.9158    0.0000 C   0  0  0  0  0  0  0  0  0  0  0  0
    5.2750   -0.8303    0.0000 C   0  0  0  0  0  0  0  0  0  0  0  0
    5.7544   -1.6607    0.0000 C   0  0  0  0  0  0  0  0  0  0  0  0
    5.2747   -2.4916    0.0000 C   0  0  0  0  0  0  0  0  0  0  0  0
    4.3159   -2.4917    0.0000 C   0  0  0  0  0  0  0  0  0  0  0  0
    1.1920   -3.1327    0.0000 C   0  0  0  0  0  0  0  0  0  0  0  0
    0.9927   -4.0705    0.0000 C   0  0  0  0  0  0  0  0  0  0  0  0
    1.7052   -4.7121    0.0000 C   0  0  0  0  0  0  0  0  0  0  0  0
    2.6171   -4.4157    0.0000 C   0  0  0  0  0  0  0  0  0  0  0  0
    2.8164   -3.4779    0.0000 C   0  0  0  0  0  0  0  0  0  0  0  0
    2.1039   -2.8363    0.0000 C   0  0  0  0  0  0  0  0  0  0  0  0
    0.0808   -4.3668    0.0000 C   0  0  0  0  0  0  0  0  0  0  0  0
    0.3979   -3.3907    0.0000 C   0  0  0  0  0  0  0  0  0  0  0  0
  1  2  1  0  0  0  0
  1  5  1  0  0  0  0
  2  3  1  0  0  0  0
  2  4  1  0  0  0  0
  5 41  2  0  0  0  0
  5  6  1  0  0  0  0
  6  7  1  0  0  0  0
  6 34  2  0  0  0  0
  7 15  2  0  0  0  0
  7  8  1  0  0  0  0
  8 12  2  0  0  0  0
  8  9  1  0  0  0  0
  9 10  1  0  0  0  0
 10 33  2  0  0  0  0
 10 11  1  0  0  0  0
 11 12  1  0  0  0  0
 11 30  2  0  0  0  0
 12 13  1  0  0  0  0
 13 14  2  0  0  0  0
 14 15  1  0  0  0  0
 15 16  1  0  0  0  0
 16 17  2  0  0  0  0
 16 18  1  0  0  0  0
 16 24  1  0  0  0  0
 18 23  2  0  0  0  0
 18 19  1  0  0  0  0
 19 20  2  0  0  0  0
 20 21  1  0  0  0  0
 21 22  2  0  0  0  0
 22 23  1  0  0  0  0
 24 29  2  0  0  0  0
 24 25  1  0  0  0  0
 25 26  2  0  0  0  0
 26 27  1  0  0  0  0
 27 28  2  0  0  0  0
 28 29  1  0  0  0  0
 30 31  1  0  0  0  0
 31 32  2  0  0  0  0
 32 33  1  0  0  0  0
 34 39  1  0  0  0  0
 34 35  1  0  0  0  0
 35 36  1  0  0  0  0
 35 40  2  0  0  0  0
 36 37  2  0  0  0  0
 37 38  1  0  0  0  0
 38 39  2  0  0  0  0
 40 41  1  0  0  0  0
M  END
> <NMREDATA_VERSION>
1.1

> <NMREDATA_LEVEL>
0

> <NMREDATA_SOLVENT>
CD2Cl2

> <NMREDATA_FORMULA>
C37H29O3P

> <NMREDATA_SMILES>
CC(Oc1ccc2c(c1c1c3oc4c(c3ccc1P(=O)(c1ccccc1)c1ccccc1)cccc4)cccc2)C

> <NMREDATA_ASSIGNMENT>
P16, 27.60, 16

> <NMREDATA_1D_31P>
Larmor=243
27.60, L=P16

$$$$
