
 OpenBabel06112616442D

 16 16  0  0  0  0  0  0  0  0999 V2000
    -4.000    -1.000     0.000 C   0  0  0  0  0  0  0  0  0  0  0  0
    -4.500    -0.134     0.000 O   0  0  0  0  0  0  0  0  0  0  0  0
    -4.500    -1.866     0.000 O   0  0  0  0  0  0  0  0  0  0  0  0
    -5.500    -1.866     0.000 C   0  0  0  0  0  0  0  0  0  0  0  0
    -3.000    -1.000     0.000 C   0  0  0  0  0  0  0  0  0  0  0  0
    -2.500    -0.134     0.000 C   0  0  0  0  0  0  0  0  0  0  0  0
    -1.500    -0.134     0.000 C   0  0  0  0  0  0  0  0  0  0  0  0
    -1.000    -1.000     0.000 C   0  0  0  0  0  0  0  0  0  0  0  0
     0.000    -1.000     0.000 P   0  0  0  0  0  0  0  0  0  0  0  0
     0.000    -2.000     0.000 O   0  0  0  0  0  0  0  0  0  0  0  0
     1.000    -1.000     0.000 O   0  0  0  0  0  0  0  0  0  0  0  0
     1.500    -1.866     0.000 C   0  0  0  0  0  0  0  0  0  0  0  0
     0.000     0.000     0.000 O   0  0  0  0  0  0  0  0  0  0  0  0
     0.866     0.500     0.000 C   0  0  0  0  0  0  0  0  0  0  0  0
    -1.500    -1.866     0.000 C   0  0  0  0  0  0  0  0  0  0  0  0
    -2.500    -1.866     0.000 C   0  0  0  0  0  0  0  0  0  0  0  0
  1  2  2  0  0  0  0
  1  3  1  0  0  0  0
  1  5  1  0  0  0  0
  3  4  1  0  0  0  0
  5 16  2  0  0  0  0
  5  6  1  0  0  0  0
  6  7  2  0  0  0  0
  7  8  1  0  0  0  0
  8  9  1  0  0  0  0
  8 15  2  0  0  0  0
  9 10  2  0  0  0  0
  9 11  1  0  0  0  0
  9 13  1  0  0  0  0
 11 12  1  0  0  0  0
 13 14  1  0  0  0  0
 15 16  1  0  0  0  0
M  END
> <NMREDATA_VERSION>
1.1

> <NMREDATA_LEVEL>
0

> <NMREDATA_SOLVENT>
CDCl3

> <NMREDATA_FORMULA>
C10H13O5P

> <NMREDATA_SMILES>
COC(=O)c1ccc(cc1)P(=O)(OC)OC

> <NMREDATA_ASSIGNMENT>
P9, 20.50, 9

> <NMREDATA_1D_31P>
Larmor=121
20.50, L=P9

$$$$
