
 OpenBabel06112616452D

 29 33  0  0  0  0  0  0  0  0999 V2000
    5.4574   -5.2607    0.0000 C   0  0  0  0  0  0  0  0  0  0  0  0
    4.6112   -4.7721    0.0000 P   0  3  0  0  0  0  0  0  0  0  0  0
    4.6112   -3.8229    0.0000 C   0  0  0  0  0  0  0  0  0  0  0  0
    5.4335   -3.3480    0.0000 C   0  0  0  0  0  0  0  0  0  0  0  0
    5.4335   -2.3988    0.0000 C   0  0  0  0  0  0  0  0  0  0  0  0
    4.6110   -1.9239    0.0000 C   0  0  0  0  0  0  0  0  0  0  0  0
    4.6111   -0.9747    0.0000 C   0  0  0  0  0  0  0  0  0  0  0  0
    3.7892   -0.5000    0.0000 C   0  0  0  0  0  0  0  0  0  0  0  0
    2.9671   -0.9745    0.0000 C   0  0  0  0  0  0  0  0  0  0  0  0
    2.9670   -1.9237    0.0000 C   0  0  0  0  0  0  0  0  0  0  0  0
    3.7889   -2.3984    0.0000 C   0  0  0  0  0  0  0  0  0  0  0  0
    3.7887   -3.3480    0.0000 C   0  0  0  0  0  0  0  0  0  0  0  0
    2.9664   -4.7721    0.0000 C   0  0  0  0  0  0  0  0  0  0  0  0
    3.7889   -5.2470    0.0000 C   0  0  0  0  0  0  0  0  0  0  0  0
    3.7886   -6.1966    0.0000 C   0  0  0  0  0  0  0  0  0  0  0  0
    2.9665   -6.6711    0.0000 C   0  0  0  0  0  0  0  0  0  0  0  0
    2.1440   -6.1962    0.0000 C   0  0  0  0  0  0  0  0  0  0  0  0
    1.3220   -6.6708    0.0000 C   0  0  0  0  0  0  0  0  0  0  0  0
    0.5000   -6.1962    0.0000 C   0  0  0  0  0  0  0  0  0  0  0  0
    0.5000   -5.2470    0.0000 C   0  0  0  0  0  0  0  0  0  0  0  0
    1.3220   -4.7724    0.0000 C   0  0  0  0  0  0  0  0  0  0  0  0
    2.1440   -5.2470    0.0000 C   0  0  0  0  0  0  0  0  0  0  0  0
    6.2551   -3.8227    0.0000 C   0  0  0  0  0  0  0  0  0  0  0  0
    6.4438   -2.8924    0.0000 C   0  0  0  0  0  0  0  0  0  0  0  0
    7.3437   -2.5908    0.0000 C   0  0  0  0  0  0  0  0  0  0  0  0
    8.0550   -3.2193    0.0000 O   0  0  0  0  0  0  0  0  0  0  0  0
    7.8663   -4.1495    0.0000 C   0  0  0  0  0  0  0  0  0  0  0  0
    6.9663   -4.4512    0.0000 C   0  0  0  0  0  0  0  0  0  0  0  0
    9.0550   -0.5000    0.0000 I   0  5  0  0  0  0  0  0  0  0  0  0
  1  2  1  0  0  0  0
  2 14  1  0  0  0  0
  2  3  1  0  0  0  0
  2 23  1  0  0  0  0
  3 12  1  0  0  0  0
  3  4  2  0  0  0  0
  4  5  1  0  0  0  0
  5  6  2  0  0  0  0
  6 11  1  0  0  0  0
  6  7  1  0  0  0  0
  7  8  2  0  0  0  0
  8  9  1  0  0  0  0
  9 10  2  0  0  0  0
 10 11  1  0  0  0  0
 11 12  2  0  0  0  0
 12 13  1  0  0  0  0
 13 22  1  0  0  0  0
 13 14  2  0  0  0  0
 14 15  1  0  0  0  0
 15 16  2  0  0  0  0
 16 17  1  0  0  0  0
 17 22  1  0  0  0  0
 17 18  2  0  0  0  0
 18 19  1  0  0  0  0
 19 20  2  0  0  0  0
 20 21  1  0  0  0  0
 21 22  2  0  0  0  0
 23 28  1  0  0  0  0
 23 24  1  0  0  0  0
 24 25  1  0  0  0  0
 25 26  1  0  0  0  0
 26 27  1  0  0  0  0
 27 28  1  0  0  0  0
M  END
> <NMREDATA_VERSION>
1.1

> <NMREDATA_LEVEL>
0

> <NMREDATA_SOLVENT>
CDCl3

> <NMREDATA_FORMULA>
C26H24IOP

> <NMREDATA_SMILES>
C[P+]1(C2CCOCC2)c2ccc3c(c2-c2c1ccc1c2cccc1)cccc3.[I-]

> <NMREDATA_ASSIGNMENT>
P2, 36.75, 2

> <NMREDATA_1D_31P>
Larmor=243
36.75, L=P2

$$$$
