
 OpenBabel06112616442D

 46 50  0  0  0  0  0  0  0  0999 V2000
   13.3091   -2.3660    0.0000 F   0  0  0  0  0  0  0  0  0  0  0  0
   13.8091   -1.5000    0.0000 C   0  0  0  0  0  0  0  0  0  0  0  0
   13.8091   -0.5000    0.0000 F   0  0  0  0  0  0  0  0  0  0  0  0
   12.9431   -1.0000    0.0000 F   0  0  0  0  0  0  0  0  0  0  0  0
   14.8091   -1.5000    0.0000 S   0  0  0  0  0  0  0  0  0  0  0  0
   14.8091   -2.5000    0.0000 O   0  5  0  0  0  0  0  0  0  0  0  0
   15.8091   -1.5000    0.0000 O   0  0  0  0  0  0  0  0  0  0  0  0
   14.8091   -0.5000    0.0000 O   0  0  0  0  0  0  0  0  0  0  0  0
    8.9431   -8.9887    0.0000 C   0  0  0  0  0  0  0  0  0  0  0  0
    8.0770   -8.4887    0.0000 C   0  0  0  0  0  0  0  0  0  0  0  0
    8.0770   -7.4887    0.0000 C   0  0  0  0  0  0  0  0  0  0  0  0
    8.9431   -6.9887    0.0000 C   0  0  0  0  0  0  0  0  0  0  0  0
    8.9431   -5.9887    0.0000 P   0  3  0  0  0  0  0  0  0  0  0  0
    9.9431   -5.9887    0.0000 C   0  0  0  0  0  0  0  0  0  0  0  0
   10.4431   -5.1227    0.0000 C   0  0  0  0  0  0  0  0  0  0  0  0
   11.4431   -5.1227    0.0000 C   0  0  0  0  0  0  0  0  0  0  0  0
   11.9431   -5.9887    0.0000 C   0  0  0  0  0  0  0  0  0  0  0  0
   11.4431   -6.8548    0.0000 C   0  0  0  0  0  0  0  0  0  0  0  0
   10.4431   -6.8548    0.0000 C   0  0  0  0  0  0  0  0  0  0  0  0
    8.9431   -4.9887    0.0000 C   0  0  0  0  0  0  0  0  0  0  0  0
    8.0770   -4.4887    0.0000 C   0  0  0  0  0  0  0  0  0  0  0  0
    8.0770   -3.4887    0.0000 C   0  0  0  0  0  0  0  0  0  0  0  0
    8.9431   -2.9887    0.0000 C   0  0  0  0  0  0  0  0  0  0  0  0
    9.8091   -3.4887    0.0000 C   0  0  0  0  0  0  0  0  0  0  0  0
    9.8091   -4.4887    0.0000 C   0  0  0  0  0  0  0  0  0  0  0  0
    7.9431   -5.9887    0.0000 C   0  0  0  0  0  0  0  0  0  0  0  0
    7.4431   -6.8548    0.0000 C   0  0  0  0  0  0  0  0  0  0  0  0
    6.4431   -6.8548    0.0000 C   0  0  0  0  0  0  0  0  0  0  0  0
    5.9431   -5.9887    0.0000 N   0  0  0  0  0  0  0  0  0  0  0  0
    6.4431   -5.1227    0.0000 C   0  0  0  0  0  0  0  0  0  0  0  0
    5.9431   -4.2567    0.0000 O   0  0  0  0  0  0  0  0  0  0  0  0
    4.9431   -4.2567    0.0000 C   0  0  0  0  0  0  0  0  0  0  0  0
    4.4431   -3.3907    0.0000 C   0  0  0  0  0  0  0  0  0  0  0  0
    3.4485   -3.2861    0.0000 C   0  0  0  0  0  0  0  0  0  0  0  0
    3.2406   -2.3080    0.0000 C   0  0  0  0  0  0  0  0  0  0  0  0
    2.3271   -1.9013    0.0000 C   0  0  0  0  0  0  0  0  0  0  0  0
    1.5181   -2.4890    0.0000 C   0  0  0  0  0  0  0  0  0  0  0  0
    0.6045   -2.0823    0.0000 C   0  0  0  0  0  0  0  0  0  0  0  0
    0.5000   -1.0878    0.0000 C   0  0  0  0  0  0  0  0  0  0  0  0
    1.3090   -0.5000    0.0000 C   0  0  0  0  0  0  0  0  0  0  0  0
    2.2226   -0.9067    0.0000 C   0  0  0  0  0  0  0  0  0  0  0  0
    4.1067   -1.8080    0.0000 N   0  0  0  0  0  0  0  0  0  0  0  0
    4.8498   -2.4771    0.0000 O   0  0  0  0  0  0  0  0  0  0  0  0
    7.4431   -5.1227    0.0000 N   0  0  0  0  0  0  0  0  0  0  0  0
    9.8091   -7.4887    0.0000 C   0  0  0  0  0  0  0  0  0  0  0  0
    9.8091   -8.4887    0.0000 C   0  0  0  0  0  0  0  0  0  0  0  0
  1  2  1  0  0  0  0
  2  3  1  0  0  0  0
  2  4  1  0  0  0  0
  2  5  1  0  0  0  0
  5  6  1  0  0  0  0
  5  7  2  0  0  0  0
  5  8  2  0  0  0  0
  9 46  2  0  0  0  0
  9 10  1  0  0  0  0
 10 11  2  0  0  0  0
 11 12  1  0  0  0  0
 12 13  1  0  0  0  0
 12 45  2  0  0  0  0
 13 14  1  0  0  0  0
 13 20  1  0  0  0  0
 13 26  1  0  0  0  0
 14 19  2  0  0  0  0
 14 15  1  0  0  0  0
 15 16  2  0  0  0  0
 16 17  1  0  0  0  0
 17 18  2  0  0  0  0
 18 19  1  0  0  0  0
 20 25  2  0  0  0  0
 20 21  1  0  0  0  0
 21 22  2  0  0  0  0
 22 23  1  0  0  0  0
 23 24  2  0  0  0  0
 24 25  1  0  0  0  0
 26 44  2  0  0  0  0
 26 27  1  0  0  0  0
 27 28  2  0  0  0  0
 28 29  1  0  0  0  0
 29 30  2  0  0  0  0
 30 31  1  0  0  0  0
 30 44  1  0  0  0  0
 31 32  1  0  0  0  0
 32 33  1  0  0  0  0
 33 43  1  0  0  0  0
 33 34  2  0  0  0  0
 34 35  1  0  0  0  0
 35 36  1  0  0  0  0
 35 42  2  0  0  0  0
 36 41  2  0  0  0  0
 36 37  1  0  0  0  0
 37 38  2  0  0  0  0
 38 39  1  0  0  0  0
 39 40  2  0  0  0  0
 40 41  1  0  0  0  0
 42 43  1  0  0  0  0
 45 46  1  0  0  0  0
M  END
> <NMREDATA_VERSION>
1.1

> <NMREDATA_LEVEL>
0

> <NMREDATA_SOLVENT>
CDCl3

> <NMREDATA_FORMULA>
C33H25F3N3O5PS

> <NMREDATA_SMILES>
c1ccc(cc1)c1noc(c1)COc1nccc(n1)[P+](c1ccccc1)(c1ccccc1)c1ccccc1.FC(S(=O)(=O)[O-])(F)F

> <NMREDATA_ASSIGNMENT>
P13, 16.36, 13

> <NMREDATA_1D_31P>
Larmor=162
16.36, L=P13

$$$$
