
 OpenBabel06112616452D

 10  9  0  0  0  0  0  0  0  0999 V2000
     1.000    -1.000     0.000 O   0  0  0  0  0  0  0  0  0  0  0  0
     1.000     0.000     0.000 P   0  0  0  0  0  0  0  0  0  0  0  0
     2.000     0.000     0.000 C   0  0  0  0  0  0  0  0  0  0  0  0
     2.500     0.866     0.000 I   0  0  0  0  0  0  0  0  0  0  0  0
     1.000     1.000     0.000 O   0  0  0  0  0  0  0  0  0  0  0  0
     0.134     1.500     0.000 C   0  0  0  0  0  0  0  0  0  0  0  0
     0.134     2.500     0.000 C   0  0  0  0  0  0  0  0  0  0  0  0
     0.000     0.000     0.000 O   0  0  0  0  0  0  0  0  0  0  0  0
    -0.500     0.866     0.000 C   0  0  0  0  0  0  0  0  0  0  0  0
    -1.500     0.866     0.000 C   0  0  0  0  0  0  0  0  0  0  0  0
  1  2  2  0  0  0  0
  2  3  1  0  0  0  0
  2  5  1  0  0  0  0
  2  8  1  0  0  0  0
  3  4  1  0  0  0  0
  5  6  1  0  0  0  0
  6  7  1  0  0  0  0
  8  9  1  0  0  0  0
  9 10  1  0  0  0  0
M  END
> <NMREDATA_VERSION>
1.1

> <NMREDATA_LEVEL>
0

> <NMREDATA_SOLVENT>
CDCl3

> <NMREDATA_FORMULA>
C5H12IO3P

> <NMREDATA_SMILES>
ICP(=O)(OCC)OCC

> <NMREDATA_ASSIGNMENT>
P2, 20.20, 2

> <NMREDATA_1D_31P>
Larmor=162
20.20, L=P2

$$$$
