
 OpenBabel06112616442D

 58 64  0  0  0  0  0  0  0  0999 V2000
   -2.7099   -0.3329    0.0000 Ag   0  0  0  0  0  0  0  0  0  0  0  0
   -1.7790   -0.6982    0.0000 O    0  0  0  0  0  0  0  0  0  0  0  0
   -0.9972   -0.0747    0.0000 P    0  0  0  0  0  0  0  0  0  0  0  0
   -0.8482   -1.0636    0.0000 O    0  0  0  0  0  0  0  0  0  0  0  0
   -1.6774    0.6583    0.0000 O    0  0  0  0  0  0  0  0  0  0  0  0
   -1.5283    1.6472    0.0000 C    0  0  0  0  0  0  0  0  0  0  0  0
   -2.3944    2.1472    0.0000 C    0  0  0  0  0  0  0  0  0  0  0  0
   -3.2604    1.6472    0.0000 C    0  0  0  0  0  0  0  0  0  0  0  0
   -3.2604    0.6472    0.0000 C    0  0  0  0  0  0  0  0  0  0  0  0
   -4.1264    0.1472    0.0000 C    0  0  0  0  0  0  0  0  0  0  0  0
   -4.1264   -0.8528    0.0000 C    0  0  0  0  0  0  0  0  0  0  0  0
   -3.6264   -1.7189    0.0000 C    0  0  0  0  0  0  0  0  0  0  0  0
   -3.1264   -0.8528    0.0000 C    0  0  0  0  0  0  0  0  0  0  0  0
   -4.9924   -1.3528    0.0000 C    0  0  0  0  0  0  0  0  0  0  0  0
   -4.9924    0.6472    0.0000 C    0  0  0  0  0  0  0  0  0  0  0  0
   -5.8585    0.1472    0.0000 O    0  0  0  0  0  0  0  0  0  0  0  0
   -6.7245    0.6472    0.0000 C    0  0  0  0  0  0  0  0  0  0  0  0
   -4.9924    1.6472    0.0000 C    0  0  0  0  0  0  0  0  0  0  0  0
   -5.8585    2.1472    0.0000 C    0  0  0  0  0  0  0  0  0  0  0  0
   -6.8585    2.1472    0.0000 C    0  0  0  0  0  0  0  0  0  0  0  0
   -6.3585    1.2811    0.0000 C    0  0  0  0  0  0  0  0  0  0  0  0
   -5.8585    3.1472    0.0000 C    0  0  0  0  0  0  0  0  0  0  0  0
   -4.1264    2.1472    0.0000 C    0  0  0  0  0  0  0  0  0  0  0  0
   -2.3944    3.1472    0.0000 C    0  0  0  0  0  0  0  0  0  0  0  0
   -1.5283    3.6472    0.0000 C    0  0  0  0  0  0  0  0  0  0  0  0
   -1.5283    4.6472    0.0000 C    0  0  0  0  0  0  0  0  0  0  0  0
   -0.6623    5.1472    0.0000 C    0  0  0  0  0  0  0  0  0  0  0  0
    0.2037    4.6472    0.0000 C    0  0  0  0  0  0  0  0  0  0  0  0
    0.2037    3.6472    0.0000 C    0  0  0  0  0  0  0  0  0  0  0  0
   -0.6623    3.1472    0.0000 C    0  0  0  0  0  0  0  0  0  0  0  0
   -0.6623    2.1472    0.0000 C    0  0  0  0  0  0  0  0  0  0  0  0
    0.2686    1.7818    0.0000 C    0  0  0  0  0  0  0  0  0  0  0  0
    0.5633    0.8262    0.0000 C    0  0  0  0  0  0  0  0  0  0  0  0
    1.5382    0.6037    0.0000 C    0  0  0  0  0  0  0  0  0  0  0  0
    1.8330   -0.3519    0.0000 C    0  0  0  0  0  0  0  0  0  0  0  0
    2.8079   -0.5744    0.0000 C    0  0  0  0  0  0  0  0  0  0  0  0
    3.1027   -1.5299    0.0000 C    0  0  0  0  0  0  0  0  0  0  0  0
    4.0776   -1.7525    0.0000 C    0  0  0  0  0  0  0  0  0  0  0  0
    5.0332   -1.4577    0.0000 C    0  0  0  0  0  0  0  0  0  0  0  0
    4.3001   -0.7775    0.0000 C    0  0  0  0  0  0  0  0  0  0  0  0
    4.3724   -2.7080    0.0000 C    0  0  0  0  0  0  0  0  0  0  0  0
    2.4225   -2.2630    0.0000 C    0  0  0  0  0  0  0  0  0  0  0  0
    2.7173   -3.2186    0.0000 O    0  0  0  0  0  0  0  0  0  0  0  0
    3.6922   -3.4411    0.0000 C    0  0  0  0  0  0  0  0  0  0  0  0
    1.4476   -2.0405    0.0000 C    0  0  0  0  0  0  0  0  0  0  0  0
    0.7674   -2.7735    0.0000 C    0  0  0  0  0  0  0  0  0  0  0  0
    0.5449   -3.7485    0.0000 C    0  0  0  0  0  0  0  0  0  0  0  0
    1.5005   -3.4537    0.0000 C    0  0  0  0  0  0  0  0  0  0  0  0
   -0.2075   -2.5510    0.0000 C    0  0  0  0  0  0  0  0  0  0  0  0
    1.1528   -1.0849    0.0000 C    0  0  0  0  0  0  0  0  0  0  0  0
    2.2184    1.3368    0.0000 C    0  0  0  0  0  0  0  0  0  0  0  0
    1.9237    2.2923    0.0000 C    0  0  0  0  0  0  0  0  0  0  0  0
    0.9487    2.5149    0.0000 C    0  0  0  0  0  0  0  0  0  0  0  0
    0.6540    3.4704    0.0000 C    0  0  0  0  0  0  0  0  0  0  0  0
    1.3342    4.2035    0.0000 C    0  0  0  0  0  0  0  0  0  0  0  0
    2.3091    3.9810    0.0000 C    0  0  0  0  0  0  0  0  0  0  0  0
    2.6038    3.0254    0.0000 C    0  0  0  0  0  0  0  0  0  0  0  0
    0.0000    0.0000    0.0000 O    0  0  0  0  0  0  0  0  0  0  0  0
  1  2  1  0  0  0  0
  2  3  1  0  0  0  0
  3 58  1  0  0  0  0
  3  4  2  0  0  0  0
  3  5  1  0  0  0  0
  5  6  1  0  0  0  0
  6 31  2  0  0  0  0
  6  7  1  0  0  0  0
  7  8  1  0  0  0  0
  7 24  2  0  0  0  0
  8 23  2  0  0  0  0
  8  9  1  0  0  0  0
  9 10  2  0  0  0  0
 10 11  1  0  0  0  0
 10 15  1  0  0  0  0
 11 12  1  0  0  0  0
 11 13  1  0  0  0  0
 11 14  1  0  0  0  0
 15 16  1  0  0  0  0
 15 18  2  0  0  0  0
 16 17  1  0  0  0  0
 18 19  1  0  0  0  0
 18 23  1  0  0  0  0
 19 20  1  0  0  0  0
 19 21  1  0  0  0  0
 19 22  1  0  0  0  0
 24 25  1  0  0  0  0
 25 30  2  0  0  0  0
 25 26  1  0  0  0  0
 26 27  2  0  0  0  0
 27 28  1  0  0  0  0
 28 29  2  0  0  0  0
 29 30  1  0  0  0  0
 30 31  1  0  0  0  0
 31 32  1  0  0  0  0
 32 53  2  0  0  0  0
 32 33  1  0  0  0  0
 33 34  2  0  0  0  0
 33 58  1  0  0  0  0
 34 35  1  0  0  0  0
 34 51  1  0  0  0  0
 35 50  2  0  0  0  0
 35 36  1  0  0  0  0
 36 37  2  0  0  0  0
 37 38  1  0  0  0  0
 37 42  1  0  0  0  0
 38 39  1  0  0  0  0
 38 40  1  0  0  0  0
 38 41  1  0  0  0  0
 42 43  1  0  0  0  0
 42 45  2  0  0  0  0
 43 44  1  0  0  0  0
 45 46  1  0  0  0  0
 45 50  1  0  0  0  0
 46 47  1  0  0  0  0
 46 48  1  0  0  0  0
 46 49  1  0  0  0  0
 51 52  2  0  0  0  0
 52 57  1  0  0  0  0
 52 53  1  0  0  0  0
 53 54  1  0  0  0  0
 54 55  2  0  0  0  0
 55 56  1  0  0  0  0
 56 57  2  0  0  0  0
M  END
> <NMREDATA_VERSION>
1.1

> <NMREDATA_LEVEL>
0

> <NMREDATA_SOLVENT>
CDCl3

> <NMREDATA_FORMULA>
C50H56AgO6P

> <NMREDATA_SMILES>
COc1c(cc(cc1C(C)(C)C)c1cc2ccccc2c2-c3c(OP(=O)(Oc12)O[Ag])c(cc1c3cccc1)c1cc(c(c(c1)C(C)(C)C)OC)C(C)(C)C)C(C)(C)C

> <NMREDATA_ASSIGNMENT>
P3, 11.00, 3

> <NMREDATA_1D_31P>
Larmor=243
11.00, L=P3

$$$$
