
 OpenBabel06112616482D

 28 28  0  0  1  0  0  0  0  0999 V2000
    3.8621   -0.9655    0.0000 C    0  0  0  0  0  0  0  0  0  0  0  0
    2.8966   -0.9655    0.0000 C    0  0  0  0  0  0  0  0  0  0  0  0
    2.4138   -1.8017    0.0000 C    0  0  0  0  0  0  0  0  0  0  0  0
    1.4483   -1.8017    0.0000 C    0  0  3  0  0  0  0  0  0  0  0  0
    0.9655   -2.6378    0.0000 O    0  0  0  0  0  0  0  0  0  0  0  0
    0.9655   -0.9655    0.0000 C    0  0  3  0  0  0  0  0  0  0  0  0
    1.4483   -0.1294    0.0000 C    0  0  0  0  0  0  0  0  0  0  0  0
    2.4138   -0.1294    0.0000 C    0  0  0  0  0  0  0  0  0  0  0  0
    2.8966    0.7068    0.0000 C    0  0  0  0  0  0  0  0  0  0  0  0
    0.0000   -0.9655    0.0000 P    0  0  3  0  0  0  0  0  0  0  0  0
    0.0000   -1.9310    0.0000 O    0  0  0  0  0  0  0  0  0  0  0  0
   -0.9655   -0.9655    0.0000 C    0  0  0  0  0  0  0  0  0  0  0  0
   -1.4483   -0.1294    0.0000 C    0  0  0  0  0  0  0  0  0  0  0  0
   -2.4138   -0.1294    0.0000 C    0  0  0  0  0  0  0  0  0  0  0  0
   -2.8966   -0.9655    0.0000 C    0  0  0  0  0  0  0  0  0  0  0  0
   -2.4138   -1.8017    0.0000 C    0  0  0  0  0  0  0  0  0  0  0  0
   -1.4483   -1.8017    0.0000 C    0  0  0  0  0  0  0  0  0  0  0  0
    0.0000    0.0000    0.0000 C    0  0  0  0  0  0  0  0  0  0  0  0
   -1.6723    0.9655    0.0000 C    0  0  0  0  0  0  0  0  0  0  0  0
   -1.6723    1.9310    0.0000 Si   0  0  0  0  0  0  0  0  0  0  0  0
   -2.6378    1.9310    0.0000 C    0  0  0  0  0  0  0  0  0  0  0  0
   -1.6723    2.8966    0.0000 C    0  0  0  0  0  0  0  0  0  0  0  0
   -0.7068    1.9310    0.0000 C    0  0  0  0  0  0  0  0  0  0  0  0
    0.8362    0.4828    0.0000 C    0  0  0  0  0  0  0  0  0  0  0  0
    0.8362    1.4483    0.0000 Si   0  0  0  0  0  0  0  0  0  0  0  0
   -0.1294    1.4483    0.0000 C    0  0  0  0  0  0  0  0  0  0  0  0
    0.8362    2.4138    0.0000 C    0  0  0  0  0  0  0  0  0  0  0  0
    1.8017    1.4483    0.0000 C    0  0  0  0  0  0  0  0  0  0  0  0
  1  2  1  0  0  0  0
  2  3  2  0  0  0  0
  3  4  1  0  0  0  0
  4  5  1  0  0  0  0
  4  6  1  0  0  0  0
  6  7  1  0  0  0  0
  6 10  1  0  0  0  0
  7  8  1  0  0  0  0
  8  9  1  0  0  0  0
 10 11  2  0  0  0  0
 10 12  1  0  0  0  0
 10 18  1  0  0  0  0
 12 17  2  0  0  0  0
 12 13  1  0  0  0  0
 13 14  2  0  0  0  0
 14 15  1  0  0  0  0
 15 16  2  0  0  0  0
 16 17  1  0  0  0  0
 18 19  1  0  0  0  0
 18 24  1  0  0  0  0
 19 20  1  0  0  0  0
 20 21  1  0  0  0  0
 20 22  1  0  0  0  0
 20 23  1  0  0  0  0
 24 25  1  0  0  0  0
 25 26  1  0  0  0  0
 25 27  1  0  0  0  0
 25 28  1  0  0  0  0
M  END
> <NMREDATA_VERSION>
1.1

> <NMREDATA_LEVEL>
0

> <NMREDATA_FORMULA>
C23H43O2PSi2

> <NMREDATA_SMILES>
CCCC(P(=O)(C(C[Si](C)(C)C)C[Si](C)(C)C)c1ccccc1)C(/C=C/C)O

> <NMREDATA_ASSIGNMENT>
P10, 56.20, 10

> <NMREDATA_1D_31P>
Larmor=162
56.20, L=P10

$$$$
