
 OpenBabel06112616422D

 46 48  0  0  0  0  0  0  0  0999 V2000
    0.1340    0.5000    0.0000 C    0  0  0  0  0  0  0  0  0  0  0  0
   -0.7321    0.0000    0.0000 O    0  0  0  0  0  0  0  0  0  0  0  0
   -0.7321   -1.0000    0.0000 C    0  0  0  0  0  0  0  0  0  0  0  0
   -1.5981   -1.5000    0.0000 O    0  0  0  0  0  0  0  0  0  0  0  0
    0.1340   -1.5000    0.0000 C    0  0  0  0  0  0  0  0  0  0  0  0
    0.1340   -2.5000    0.0000 N    0  0  0  0  0  0  0  0  0  0  0  0
   -0.7321   -3.0000    0.0000 C    0  0  0  0  0  0  0  0  0  0  0  0
   -0.7321   -4.0000    0.0000 O    0  0  0  0  0  0  0  0  0  0  0  0
   -1.5981   -2.5000    0.0000 O    0  0  0  0  0  0  0  0  0  0  0  0
   -2.4641   -3.0000    0.0000 C    0  0  0  0  0  0  0  0  0  0  0  0
   -3.4641   -3.0000    0.0000 C    0  0  0  0  0  0  0  0  0  0  0  0
   -2.9641   -2.1340    0.0000 C    0  0  0  0  0  0  0  0  0  0  0  0
   -2.4641   -4.0000    0.0000 C    0  0  0  0  0  0  0  0  0  0  0  0
    1.0000   -1.0000    0.0000 C    0  0  0  0  0  0  0  0  0  0  0  0
    1.8660   -1.5000    0.0000 C    0  0  0  0  0  0  0  0  0  0  0  0
    2.7321   -1.0000    0.0000 C    0  0  0  0  0  0  0  0  0  0  0  0
    2.8366   -0.0055    0.0000 C    0  0  0  0  0  0  0  0  0  0  0  0
    2.0934    0.6637    0.0000 C    0  0  0  0  0  0  0  0  0  0  0  0
    3.8147    0.2024    0.0000 N    0  0  0  0  0  0  0  0  0  0  0  0
    4.2215    1.1160    0.0000 C    0  0  0  0  0  0  0  0  0  0  0  0
    3.6337    1.9250    0.0000 O    0  0  0  0  0  0  0  0  0  0  0  0
    5.2160    1.2205    0.0000 C    0  0  0  0  0  0  0  0  0  0  0  0
    5.8038    0.4115    0.0000 C    0  0  0  0  0  0  0  0  0  0  0  0
    6.7983    0.5160    0.0000 C    0  0  0  0  0  0  0  0  0  0  0  0
    7.2050    1.4296    0.0000 C    0  0  0  0  0  0  0  0  0  0  0  0
    8.1996    1.5341    0.0000 Cl   0  0  0  0  0  0  0  0  0  0  0  0
    6.6172    2.2386    0.0000 C    0  0  0  0  0  0  0  0  0  0  0  0
    5.6227    2.1341    0.0000 C    0  0  0  0  0  0  0  0  0  0  0  0
    4.3147   -0.6636    0.0000 C    0  0  0  0  0  0  0  0  0  0  0  0
    5.2929   -0.8715    0.0000 C    0  0  0  0  0  0  0  0  0  0  0  0
    5.6019   -1.8226    0.0000 C    0  0  0  0  0  0  0  0  0  0  0  0
    4.9328   -2.5657    0.0000 C    0  0  0  0  0  0  0  0  0  0  0  0
    5.2418   -3.5168    0.0000 O    0  0  0  0  0  0  0  0  0  0  0  0
    6.2199   -3.7247    0.0000 C    0  0  0  0  0  0  0  0  0  0  0  0
    3.9546   -2.3578    0.0000 C    0  0  0  0  0  0  0  0  0  0  0  0
    3.6456   -1.4067    0.0000 C    0  0  0  0  0  0  0  0  0  0  0  0
    1.0000    0.0000    0.0000 P    0  0  0  0  0  0  0  0  0  0  0  0
    2.0000    0.0000    0.0000 O    0  0  0  0  0  0  0  0  0  0  0  0
    1.0000    1.0000    0.0000 O    0  0  0  0  0  0  0  0  0  0  0  0
    1.8660    1.5000    0.0000 C    0  0  0  0  0  0  0  0  0  0  0  0
    1.8660    2.5000    0.0000 C    0  0  0  0  0  0  0  0  0  0  0  0
    1.0000    3.0000    0.0000 C    0  0  0  0  0  0  0  0  0  0  0  0
    0.0000    0.0000    0.0000 O    0  0  0  0  0  0  0  0  0  0  0  0
   -0.5000    0.8660    0.0000 C    0  0  0  0  0  0  0  0  0  0  0  0
    0.0000    1.7321    0.0000 C    0  0  0  0  0  0  0  0  0  0  0  0
    1.0000    1.7321    0.0000 C    0  0  0  0  0  0  0  0  0  0  0  0
  1  2  1  0  0  0  0
  2  3  1  0  0  0  0
  3  4  2  0  0  0  0
  3  5  1  0  0  0  0
  5  6  1  0  0  0  0
  5 14  2  0  0  0  0
  6  7  1  0  0  0  0
  7  8  2  0  0  0  0
  7  9  1  0  0  0  0
  9 10  1  0  0  0  0
 10 11  1  0  0  0  0
 10 12  1  0  0  0  0
 10 13  1  0  0  0  0
 14 15  1  0  0  0  0
 14 37  1  0  0  0  0
 15 16  1  0  0  0  0
 16 36  1  0  0  0  0
 16 17  2  0  0  0  0
 17 18  1  0  0  0  0
 17 19  1  0  0  0  0
 19 20  1  0  0  0  0
 19 29  1  0  0  0  0
 20 21  2  0  0  0  0
 20 22  1  0  0  0  0
 22 28  2  0  0  0  0
 22 23  1  0  0  0  0
 23 24  2  0  0  0  0
 24 25  1  0  0  0  0
 25 26  1  0  0  0  0
 25 27  2  0  0  0  0
 27 28  1  0  0  0  0
 29 36  2  0  0  0  0
 29 30  1  0  0  0  0
 30 31  2  0  0  0  0
 31 32  1  0  0  0  0
 32 33  1  0  0  0  0
 32 35  2  0  0  0  0
 33 34  1  0  0  0  0
 35 36  1  0  0  0  0
 37 38  2  0  0  0  0
 37 39  1  0  0  0  0
 37 43  1  0  0  0  0
 39 40  1  0  0  0  0
 40 41  1  0  0  0  0
 41 42  1  0  0  0  0
 43 44  1  0  0  0  0
 44 45  1  0  0  0  0
 45 46  1  0  0  0  0
M  END
> <NMREDATA_VERSION>
1.1

> <NMREDATA_LEVEL>
0

> <NMREDATA_SOLVENT>
CDCl3

> <NMREDATA_FORMULA>
C33H42ClN2O9P

> <NMREDATA_SMILES>
CCCOP(=O)(/C(=C(\C(=O)OC)/NC(=O)OC(C)(C)C)/Cc1c(C)n(c2c1cc(OC)cc2)C(=O)c1ccc(cc1)Cl)OCCC

> <NMREDATA_ASSIGNMENT>
P37, 19.04, 37

> <NMREDATA_1D_31P>
Larmor=162
19.04, L=P37

$$$$
