
 OpenBabel06112616432D

 37 40  0  0  1  0  0  0  0  0999 V2000
   -1.9352    0.5469    0.0000 C   0  0  0  0  0  0  0  0  0  0  0  0
   -1.1921   -0.1222    0.0000 C   0  0  0  0  0  0  0  0  0  0  0  0
   -0.2410    0.1868    0.0000 C   0  0  0  0  0  0  0  0  0  0  0  0
   -1.4000   -1.1004    0.0000 P   0  0  2  0  0  0  0  0  0  0  0  0
   -0.4218   -1.3083    0.0000 O   0  0  0  0  0  0  0  0  0  0  0  0
   -1.6079   -2.0785    0.0000 N   0  0  0  0  0  0  0  0  0  0  0  0
   -0.8647   -2.7477    0.0000 C   0  0  0  0  0  0  0  0  0  0  0  0
   -0.5557   -3.6987    0.0000 C   0  0  0  0  0  0  0  0  0  0  0  0
   -1.5339   -3.4908    0.0000 C   0  0  0  0  0  0  0  0  0  0  0  0
    0.0863   -2.4387    0.0000 C   0  0  0  0  0  0  0  0  0  0  0  0
    0.8295   -3.1078    0.0000 C   0  0  0  0  0  0  0  0  0  0  0  0
    1.7805   -2.7988    0.0000 C   0  0  0  0  0  0  0  0  0  0  0  0
    1.9884   -1.8206    0.0000 C   0  0  0  0  0  0  0  0  0  0  0  0
    1.2453   -1.1515    0.0000 C   0  0  0  0  0  0  0  0  0  0  0  0
    0.2942   -1.4605    0.0000 N   0  0  0  0  0  0  0  0  0  0  0  0
   -1.6923   -1.9541    0.0000 C   0  0  1  0  0  0  0  0  0  0  0  0
   -1.6923   -2.9312    0.0000 C   0  0  0  0  0  0  0  0  0  0  0  0
   -0.8461   -1.4656    0.0000 C   0  0  0  0  0  0  0  0  0  0  0  0
   -0.8462   -0.4885    0.0000 C   0  0  0  0  0  0  0  0  0  0  0  0
   -1.6923    0.0000    0.0000 C   0  0  0  0  0  0  0  0  0  0  0  0
   -1.6923    0.9770    0.0000 C   0  0  0  0  0  0  0  0  0  0  0  0
   -0.8462    1.4656    0.0000 C   0  0  0  0  0  0  0  0  0  0  0  0
   -0.8462    2.4426    0.0000 C   0  0  0  0  0  0  0  0  0  0  0  0
   -0.1201    3.0964    0.0000 O   0  0  0  0  0  0  0  0  0  0  0  0
   -1.7754    2.7446    0.0000 O   0  0  0  0  0  0  0  0  0  0  0  0
   -2.6216    2.2560    0.0000 C   0  0  2  0  0  0  0  0  0  0  0  0
   -2.6216    1.2790    0.0000 C   0  0  0  0  0  0  0  0  0  0  0  0
   -3.4679    0.7903    0.0000 C   0  0  1  0  0  0  0  0  0  0  0  0
   -4.3142    1.2789    0.0000 C   0  0  0  0  0  0  0  0  0  0  0  0
   -4.3142    2.2560    0.0000 C   0  0  0  0  0  0  0  0  0  0  0  0
   -3.4679    2.7446    0.0000 C   0  0  1  0  0  0  0  0  0  0  0  0
   -3.2654    3.7093    0.0000 C   0  0  0  0  0  0  0  0  0  0  0  0
   -3.8969    1.7676    0.0000 C   0  0  0  0  0  0  0  0  0  0  0  0
   -4.8826    1.7676    0.0000 C   0  0  0  0  0  0  0  0  0  0  0  0
   -2.9112    1.7676    0.0000 C   0  0  0  0  0  0  0  0  0  0  0  0
    0.0000    0.9771    0.0000 C   0  0  0  0  0  0  0  0  0  0  0  0
    0.0000    0.0000    0.0000 C   0  0  0  0  0  0  0  0  0  0  0  0
  1  2  1  0  0  0  0
  2  3  1  0  0  0  0
  2  4  1  0  0  0  0
  4  5  2  1  0  0  0
  4  6  1  0  0  0  0
  4 16  1  0  0  0  0
  6  7  1  0  0  0  0
  7  8  1  0  0  0  0
  7  9  1  0  0  0  0
  7 10  1  0  0  0  0
 10 15  2  0  0  0  0
 10 11  1  0  0  0  0
 11 12  2  0  0  0  0
 12 13  1  0  0  0  0
 13 14  2  0  0  0  0
 14 15  1  0  0  0  0
 16 17  1  6  0  0  0
 16 18  1  0  0  0  0
 18 19  1  0  0  0  0
 19 37  2  0  0  0  0
 19 20  1  0  0  0  0
 20 21  2  0  0  0  0
 21 22  1  0  0  0  0
 22 23  1  0  0  0  0
 22 36  2  0  0  0  0
 23 24  2  0  0  0  0
 23 25  1  0  0  0  0
 26 25  1  6  0  0  0
 26 27  1  0  0  0  0
 26 31  1  0  0  0  0
 28 27  1  1  0  0  0
 28 29  1  0  0  0  0
 28 33  1  0  0  0  0
 29 30  1  0  0  0  0
 30 31  1  0  0  0  0
 31 32  1  6  0  0  0
 31 33  1  0  0  0  0
 33 34  1  0  0  0  0
 33 35  1  0  0  0  0
 36 37  1  0  0  0  0
M  END
> <NMREDATA_VERSION>
1.1

> <NMREDATA_LEVEL>
0

> <NMREDATA_SOLVENT>
CDCl3

> <NMREDATA_FORMULA>
C31H45N2O3P

> <NMREDATA_SMILES>
O=C(c1ccc(cc1)C[C@@H]([P@](=O)(C(C)C)NC(c1ccccn1)(C)C)C)O[C@@H]1C[C@@H]2C([C@@]1(C)CC2)(C)C

> <NMREDATA_ASSIGNMENT>
P4, 51.50, 4

> <NMREDATA_1D_31P>
Larmor=162
51.50, L=P4

$$$$
