
 OpenBabel06112616492D

 37 42  0  0  0  0  0  0  0  0999 V2000
    3.7333   -3.7333    0.0000 C   0  0  0  0  0  0  0  0  0  0  0  0
    3.7333   -2.8000    0.0000 C   0  0  0  0  0  0  0  0  0  0  0  0
    2.9250   -2.3333    0.0000 C   0  0  0  0  0  0  0  0  0  0  0  0
    2.9250   -1.4000    0.0000 C   0  0  0  0  0  0  0  0  0  0  0  0
    3.7333   -0.9333    0.0000 C   0  0  0  0  0  0  0  0  0  0  0  0
    3.7333    0.0000    0.0000 P   0  0  0  0  0  0  0  0  0  0  0  0
    4.6667    0.0000    0.0000 O   0  0  0  0  0  0  0  0  0  0  0  0
    3.7333    0.9333    0.0000 C   0  0  0  0  0  0  0  0  0  0  0  0
    2.9250    1.4000    0.0000 C   0  0  0  0  0  0  0  0  0  0  0  0
    2.9250    2.3333    0.0000 C   0  0  0  0  0  0  0  0  0  0  0  0
    3.7333    2.8000    0.0000 C   0  0  0  0  0  0  0  0  0  0  0  0
    3.7333    3.7333    0.0000 C   0  0  0  0  0  0  0  0  0  0  0  0
    4.5416    2.3333    0.0000 C   0  0  0  0  0  0  0  0  0  0  0  0
    4.5416    1.4000    0.0000 C   0  0  0  0  0  0  0  0  0  0  0  0
    0.0000    0.0000    0.0000 C   0  0  0  0  0  0  0  0  0  0  0  0
   -0.4667    0.8083    0.0000 C   0  0  0  0  0  0  0  0  0  0  0  0
   -1.4000    0.8083    0.0000 C   0  0  0  0  0  0  0  0  0  0  0  0
   -1.8667    0.0000    0.0000 C   0  0  0  0  0  0  0  0  0  0  0  0
   -2.8000    0.0000    0.0000 C   0  0  0  0  0  0  0  0  0  0  0  0
   -3.2667   -0.8083    0.0000 C   0  0  0  0  0  0  0  0  0  0  0  0
   -2.8000   -1.6166    0.0000 C   0  0  0  0  0  0  0  0  0  0  0  0
   -1.8667   -1.6166    0.0000 C   0  0  0  0  0  0  0  0  0  0  0  0
   -1.4000   -0.8083    0.0000 C   0  0  0  0  0  0  0  0  0  0  0  0
   -0.4667   -0.8083    0.0000 C   0  0  0  0  0  0  0  0  0  0  0  0
    0.0000   -1.6166    0.0000 C   0  0  0  0  0  0  0  0  0  0  0  0
    0.9333   -1.6166    0.0000 C   0  0  0  0  0  0  0  0  0  0  0  0
    1.4000   -0.8083    0.0000 O   0  0  0  0  0  0  0  0  0  0  0  0
    1.4000   -2.4249    0.0000 C   0  0  0  0  0  0  0  0  0  0  0  0
    0.9333   -3.2332    0.0000 C   0  0  0  0  0  0  0  0  0  0  0  0
    0.0000   -3.2332    0.0000 C   0  0  0  0  0  0  0  0  0  0  0  0
   -0.4667   -4.0415    0.0000 C   0  0  0  0  0  0  0  0  0  0  0  0
   -1.4000   -4.0415    0.0000 C   0  0  0  0  0  0  0  0  0  0  0  0
   -1.8667   -3.2332    0.0000 C   0  0  0  0  0  0  0  0  0  0  0  0
   -1.4000   -2.4249    0.0000 C   0  0  0  0  0  0  0  0  0  0  0  0
   -0.4667   -2.4249    0.0000 C   0  0  0  0  0  0  0  0  0  0  0  0
    4.5416   -1.4000    0.0000 C   0  0  0  0  0  0  0  0  0  0  0  0
    4.5416   -2.3333    0.0000 C   0  0  0  0  0  0  0  0  0  0  0  0
  1  2  1  0  0  0  0
  2 37  2  0  0  0  0
  2  3  1  0  0  0  0
  3  4  2  0  0  0  0
  4  5  1  0  0  0  0
  5  6  1  0  0  0  0
  5 36  2  0  0  0  0
  6  7  2  0  0  0  0
  6  8  1  0  0  0  0
  6 15  1  0  0  0  0
  8 14  2  0  0  0  0
  8  9  1  0  0  0  0
  9 10  2  0  0  0  0
 10 11  1  0  0  0  0
 11 12  1  0  0  0  0
 11 13  2  0  0  0  0
 13 14  1  0  0  0  0
 15 24  2  0  0  0  0
 15 16  1  0  0  0  0
 16 17  2  0  0  0  0
 17 18  1  0  0  0  0
 18 23  2  0  0  0  0
 18 19  1  0  0  0  0
 19 20  2  0  0  0  0
 20 21  1  0  0  0  0
 21 22  2  0  0  0  0
 22 23  1  0  0  0  0
 23 24  1  0  0  0  0
 24 25  1  0  0  0  0
 25 35  2  0  0  0  0
 25 26  1  0  0  0  0
 26 27  1  0  0  0  0
 26 28  2  0  0  0  0
 28 29  1  0  0  0  0
 29 30  2  0  0  0  0
 30 35  1  0  0  0  0
 30 31  1  0  0  0  0
 31 32  2  0  0  0  0
 32 33  1  0  0  0  0
 33 34  2  0  0  0  0
 34 35  1  0  0  0  0
 36 37  1  0  0  0  0
M  END
> <NMREDATA_VERSION>
1.1

> <NMREDATA_LEVEL>
0

> <NMREDATA_SOLVENT>
CDCl3

> <NMREDATA_FORMULA>
C34H27O2P

> <NMREDATA_SMILES>
Cc1ccc(cc1)P(=O)(c1ccc2c(c1c1c(O)ccc3c1cccc3)cccc2)c1ccc(cc1)C

> <NMREDATA_ASSIGNMENT>
P6, 31.28, 6

> <NMREDATA_1D_31P>
Larmor=243
31.28, L=P6

$$$$
