
 OpenBabel06112616422D

 39 44  0  0  1  0  0  0  0  0999 V2000
   -5.6912   -1.8261    0.0000 C   0  0  0  0  0  0  0  0  0  0  0  0
   -4.9002   -1.2514    0.0000 C   0  0  0  0  0  0  0  0  0  0  0  0
   -4.0069   -1.6490    0.0000 C   0  0  0  0  0  0  0  0  0  0  0  0
   -3.9047   -2.6215    0.0000 C   0  0  0  0  0  0  0  0  0  0  0  0
   -3.0115   -3.0192    0.0000 C   0  0  0  0  0  0  0  0  0  0  0  0
   -2.2204   -2.4444    0.0000 N   0  0  0  0  0  0  0  0  0  0  0  0
   -2.2204   -1.4667    0.0000 C   0  0  0  0  0  0  0  0  0  0  0  0
   -1.2905   -1.1645    0.0000 C   0  0  0  0  0  0  0  0  0  0  0  0
   -1.0872   -0.2081    0.0000 C   0  0  0  0  0  0  0  0  0  0  0  0
   -1.8138    0.4462    0.0000 C   0  0  0  0  0  0  0  0  0  0  0  0
   -2.7438    0.1440    0.0000 C   0  0  0  0  0  0  0  0  0  0  0  0
   -2.9471   -0.8124    0.0000 C   0  0  0  0  0  0  0  0  0  0  0  0
   -0.7158   -1.9556    0.0000 C   0  0  3  0  0  0  0  0  0  0  0  0
    0.1310   -2.4444    0.0000 C   0  0  0  0  0  0  0  0  0  0  0  0
    0.9778   -1.9556    0.0000 C   0  0  0  0  0  0  0  0  0  0  0  0
    1.8246   -2.4444    0.0000 C   0  0  0  0  0  0  0  0  0  0  0  0
    1.8246   -3.4222    0.0000 C   0  0  0  0  0  0  0  0  0  0  0  0
    2.6713   -3.9111    0.0000 F   0  0  0  0  0  0  0  0  0  0  0  0
    0.9778   -3.9111    0.0000 C   0  0  0  0  0  0  0  0  0  0  0  0
    0.1310   -3.4222    0.0000 C   0  0  0  0  0  0  0  0  0  0  0  0
    0.9778   -0.9778    0.0000 C   0  0  0  0  0  0  0  0  0  0  0  0
    0.9778    0.0000    0.0000 P   0  0  0  0  0  0  0  0  0  0  0  0
    1.9556    0.0000    0.0000 C   0  0  0  0  0  0  0  0  0  0  0  0
    2.4444    0.8468    0.0000 C   0  0  0  0  0  0  0  0  0  0  0  0
    3.4222    0.8468    0.0000 C   0  0  0  0  0  0  0  0  0  0  0  0
    3.9111    0.0000    0.0000 C   0  0  0  0  0  0  0  0  0  0  0  0
    3.4222   -0.8468    0.0000 C   0  0  0  0  0  0  0  0  0  0  0  0
    2.4444   -0.8468    0.0000 C   0  0  0  0  0  0  0  0  0  0  0  0
    0.9778    0.9778    0.0000 C   0  0  0  0  0  0  0  0  0  0  0  0
    0.1310    1.4667    0.0000 C   0  0  0  0  0  0  0  0  0  0  0  0
    0.1310    2.4444    0.0000 C   0  0  0  0  0  0  0  0  0  0  0  0
    0.9778    2.9333    0.0000 C   0  0  0  0  0  0  0  0  0  0  0  0
    1.8246    2.4444    0.0000 C   0  0  0  0  0  0  0  0  0  0  0  0
    1.8246    1.4667    0.0000 C   0  0  0  0  0  0  0  0  0  0  0  0
    0.0000    0.0000    0.0000 O   0  0  0  0  0  0  0  0  0  0  0  0
   -1.2905   -2.7466    0.0000 C   0  0  0  0  0  0  0  0  0  0  0  0
   -0.9884   -3.6765    0.0000 O   0  0  0  0  0  0  0  0  0  0  0  0
   -4.6958   -3.1962    0.0000 C   0  0  0  0  0  0  0  0  0  0  0  0
   -5.5890   -2.7985    0.0000 C   0  0  0  0  0  0  0  0  0  0  0  0
  1 39  2  0  0  0  0
  1  2  1  0  0  0  0
  2  3  2  0  0  0  0
  3  4  1  0  0  0  0
  4  5  1  0  0  0  0
  4 38  2  0  0  0  0
  5  6  1  0  0  0  0
  6 36  1  0  0  0  0
  6  7  1  0  0  0  0
  7 12  2  0  0  0  0
  7  8  1  0  0  0  0
  8  9  2  0  0  0  0
  8 13  1  0  0  0  0
  9 10  1  0  0  0  0
 10 11  2  0  0  0  0
 11 12  1  0  0  0  0
 13 14  1  0  0  0  0
 13 21  1  0  0  0  0
 13 36  1  0  0  0  0
 14 20  2  0  0  0  0
 14 15  1  0  0  0  0
 15 16  2  0  0  0  0
 16 17  1  0  0  0  0
 17 18  1  0  0  0  0
 17 19  2  0  0  0  0
 19 20  1  0  0  0  0
 21 22  1  0  0  0  0
 22 23  1  0  0  0  0
 22 29  1  0  0  0  0
 22 35  2  0  0  0  0
 23 28  2  0  0  0  0
 23 24  1  0  0  0  0
 24 25  2  0  0  0  0
 25 26  1  0  0  0  0
 26 27  2  0  0  0  0
 27 28  1  0  0  0  0
 29 34  2  0  0  0  0
 29 30  1  0  0  0  0
 30 31  2  0  0  0  0
 31 32  1  0  0  0  0
 32 33  2  0  0  0  0
 33 34  1  0  0  0  0
 36 37  2  0  0  0  0
 38 39  1  0  0  0  0
M  END
> <NMREDATA_VERSION>
1.1

> <NMREDATA_LEVEL>
0

> <NMREDATA_SOLVENT>
CDCl3

> <NMREDATA_FORMULA>
C34H27FNO2P

> <NMREDATA_SMILES>
Fc1ccc(cc1)C1(CP(=O)(c2ccccc2)c2ccccc2)C(=O)N(c2c1cccc2)Cc1ccccc1

> <NMREDATA_ASSIGNMENT>
P22, 24.87, 22

> <NMREDATA_1D_31P>
Larmor=162
24.87, L=P22

$$$$
