
 OpenBabel06112616472D

 33 37  0  0  0  0  0  0  0  0999 V2000
    2.0979   -2.7750    0.0000 C   0  0  0  0  0  0  0  0  0  0  0  0
    2.8989   -2.3125    0.0000 C   0  0  0  0  0  0  0  0  0  0  0  0
    3.7000   -2.7750    0.0000 C   0  0  0  0  0  0  0  0  0  0  0  0
    4.5011   -2.3125    0.0000 C   0  0  0  0  0  0  0  0  0  0  0  0
    5.3021   -2.7750    0.0000 C   0  0  0  0  0  0  0  0  0  0  0  0
    4.5011   -1.3875    0.0000 C   0  0  0  0  0  0  0  0  0  0  0  0
    3.7000   -0.9250    0.0000 C   0  0  0  0  0  0  0  0  0  0  0  0
    3.7000    0.0000    0.0000 P   0  0  0  0  0  0  0  0  0  0  0  0
    4.6250    0.0000    0.0000 O   0  0  0  0  0  0  0  0  0  0  0  0
    3.7000    0.9250    0.0000 C   0  0  0  0  0  0  0  0  0  0  0  0
    2.8989    1.3875    0.0000 C   0  0  0  0  0  0  0  0  0  0  0  0
    2.8989    2.3125    0.0000 C   0  0  0  0  0  0  0  0  0  0  0  0
    2.0979    2.7750    0.0000 C   0  0  0  0  0  0  0  0  0  0  0  0
    3.7000    2.7750    0.0000 C   0  0  0  0  0  0  0  0  0  0  0  0
    4.5011    2.3125    0.0000 C   0  0  0  0  0  0  0  0  0  0  0  0
    5.3021    2.7750    0.0000 C   0  0  0  0  0  0  0  0  0  0  0  0
    4.5011    1.3875    0.0000 C   0  0  0  0  0  0  0  0  0  0  0  0
    0.0000    0.0000    0.0000 C   0  0  0  0  0  0  0  0  0  0  0  0
   -0.4625    0.8011    0.0000 C   0  0  0  0  0  0  0  0  0  0  0  0
   -1.3875    0.8011    0.0000 C   0  0  0  0  0  0  0  0  0  0  0  0
   -1.8500    0.0000    0.0000 C   0  0  0  0  0  0  0  0  0  0  0  0
   -1.3875   -0.8011    0.0000 C   0  0  0  0  0  0  0  0  0  0  0  0
   -0.4625   -0.8011    0.0000 C   0  0  0  0  0  0  0  0  0  0  0  0
    0.0000   -1.6021    0.0000 N   0  0  0  0  0  0  0  0  0  0  0  0
    0.9199   -1.6988    0.0000 C   0  0  0  0  0  0  0  0  0  0  0  0
    1.1123   -2.6036    0.0000 C   0  0  0  0  0  0  0  0  0  0  0  0
    0.3112   -3.0661    0.0000 C   0  0  0  0  0  0  0  0  0  0  0  0
    0.1189   -3.9709    0.0000 C   0  0  0  0  0  0  0  0  0  0  0  0
   -0.7609   -4.2567    0.0000 C   0  0  0  0  0  0  0  0  0  0  0  0
   -1.4483   -3.6378    0.0000 C   0  0  0  0  0  0  0  0  0  0  0  0
   -1.2560   -2.7330    0.0000 C   0  0  0  0  0  0  0  0  0  0  0  0
   -0.3762   -2.4472    0.0000 C   0  0  0  0  0  0  0  0  0  0  0  0
    2.8989   -1.3875    0.0000 C   0  0  0  0  0  0  0  0  0  0  0  0
  1  2  1  0  0  0  0
  2 33  2  0  0  0  0
  2  3  1  0  0  0  0
  3  4  2  0  0  0  0
  4  5  1  0  0  0  0
  4  6  1  0  0  0  0
  6  7  2  0  0  0  0
  7  8  1  0  0  0  0
  7 33  1  0  0  0  0
  8  9  2  0  0  0  0
  8 10  1  0  0  0  0
  8 18  1  0  0  0  0
 10 17  2  0  0  0  0
 10 11  1  0  0  0  0
 11 12  2  0  0  0  0
 12 13  1  0  0  0  0
 12 14  1  0  0  0  0
 14 15  2  0  0  0  0
 15 16  1  0  0  0  0
 15 17  1  0  0  0  0
 18 23  2  0  0  0  0
 18 19  1  0  0  0  0
 19 20  2  0  0  0  0
 20 21  1  0  0  0  0
 21 22  2  0  0  0  0
 22 23  1  0  0  0  0
 23 24  1  0  0  0  0
 24 32  1  0  0  0  0
 24 25  1  0  0  0  0
 25 26  2  0  0  0  0
 26 27  1  0  0  0  0
 27 32  2  0  0  0  0
 27 28  1  0  0  0  0
 28 29  2  0  0  0  0
 29 30  1  0  0  0  0
 30 31  2  0  0  0  0
 31 32  1  0  0  0  0
M  END
> <NMREDATA_VERSION>
1.1

> <NMREDATA_LEVEL>
0

> <NMREDATA_SOLVENT>
CDCl3

> <NMREDATA_FORMULA>
C30H28NOP

> <NMREDATA_SMILES>
Cc1cc(C)cc(c1)P(=O)(c1ccccc1n1ccc2c1cccc2)c1cc(C)cc(c1)C

> <NMREDATA_ASSIGNMENT>
P8, 25.90, 8

> <NMREDATA_1D_31P>
Larmor=162
25.90, L=P8

$$$$
