
 OpenBabel06112616432D

 37 41  0  0  1  0  0  0  0  0999 V2000
    5.9908   -2.9286    0.0000 C   0  0  0  0  0  0  0  0  0  0  0  0
    5.9908   -1.9524    0.0000 O   0  0  0  0  0  0  0  0  0  0  0  0
    5.1454   -1.4643    0.0000 C   0  0  0  0  0  0  0  0  0  0  0  0
    5.1454   -0.4881    0.0000 C   0  0  0  0  0  0  0  0  0  0  0  0
    4.3000    0.0000    0.0000 C   0  0  0  0  0  0  0  0  0  0  0  0
    3.4546   -0.4881    0.0000 C   0  0  0  0  0  0  0  0  0  0  0  0
    3.4546   -1.4643    0.0000 C   0  0  0  0  0  0  0  0  0  0  0  0
    4.3000   -1.9524    0.0000 C   0  0  0  0  0  0  0  0  0  0  0  0
    2.5262   -1.7659    0.0000 C   0  0  2  0  0  0  0  0  0  0  0  0
    3.1000   -2.5557    0.0000 C   0  0  0  0  0  0  0  0  0  0  0  0
    2.5262   -3.3455    0.0000 C   0  0  0  0  0  0  0  0  0  0  0  0
    1.5978   -3.0438    0.0000 C   0  0  0  0  0  0  0  0  0  0  0  0
    0.8080   -3.6176    0.0000 O   0  0  0  0  0  0  0  0  0  0  0  0
    1.5978   -2.0676    0.0000 O   0  0  0  0  0  0  0  0  0  0  0  0
    1.9524   -0.9762    0.0000 C   0  0  1  0  0  0  0  0  0  0  0  0
    0.0000   -0.9762    0.0000 P   0  0  0  0  0  0  0  0  0  0  0  0
    0.0000   -1.9524    0.0000 O   0  0  0  0  0  0  0  0  0  0  0  0
   -0.9762   -0.9762    0.0000 C   0  0  0  0  0  0  0  0  0  0  0  0
   -1.4643   -0.1308    0.0000 C   0  0  0  0  0  0  0  0  0  0  0  0
   -2.4405   -0.1308    0.0000 C   0  0  0  0  0  0  0  0  0  0  0  0
   -2.9286   -0.9762    0.0000 C   0  0  0  0  0  0  0  0  0  0  0  0
   -2.4405   -1.8216    0.0000 C   0  0  0  0  0  0  0  0  0  0  0  0
   -1.4643   -1.8216    0.0000 C   0  0  0  0  0  0  0  0  0  0  0  0
    0.0000    0.0000    0.0000 C   0  0  0  0  0  0  0  0  0  0  0  0
    0.8454    0.4881    0.0000 C   0  0  0  0  0  0  0  0  0  0  0  0
    0.8454    1.4643    0.0000 C   0  0  0  0  0  0  0  0  0  0  0  0
    0.0000    1.9524    0.0000 C   0  0  0  0  0  0  0  0  0  0  0  0
   -0.8454    1.4643    0.0000 C   0  0  0  0  0  0  0  0  0  0  0  0
   -0.8454    0.4881    0.0000 C   0  0  0  0  0  0  0  0  0  0  0  0
    2.5262   -0.1864    0.0000 N   0  0  0  0  0  0  0  0  0  0  0  0
    2.2245    0.7420    0.0000 C   0  0  0  0  0  0  0  0  0  0  0  0
    1.2697    0.9449    0.0000 O   0  0  0  0  0  0  0  0  0  0  0  0
    2.8777    1.4674    0.0000 O   0  0  0  0  0  0  0  0  0  0  0  0
    2.5761    2.3958    0.0000 C   0  0  0  0  0  0  0  0  0  0  0  0
    2.7790    3.3507    0.0000 C   0  0  0  0  0  0  0  0  0  0  0  0
    3.5045    2.6975    0.0000 C   0  0  0  0  0  0  0  0  0  0  0  0
    1.6212    2.5988    0.0000 C   0  0  0  0  0  0  0  0  0  0  0  0
  1  2  1  0  0  0  0
  2  3  1  0  0  0  0
  3  8  2  0  0  0  0
  3  4  1  0  0  0  0
  4  5  2  0  0  0  0
  5  6  1  0  0  0  0
  6 30  1  0  0  0  0
  6  7  2  0  0  0  0
  7  8  1  0  0  0  0
  7  9  1  0  0  0  0
  9 14  1  0  0  0  0
  9 10  1  1  0  0  0
  9 15  1  0  0  0  0
 10 11  1  0  0  0  0
 11 12  1  0  0  0  0
 12 13  2  0  0  0  0
 12 14  1  0  0  0  0
 15 16  1  1  0  0  0
 15 30  1  0  0  0  0
 16 17  2  0  0  0  0
 16 18  1  0  0  0  0
 16 24  1  0  0  0  0
 18 23  2  0  0  0  0
 18 19  1  0  0  0  0
 19 20  2  0  0  0  0
 20 21  1  0  0  0  0
 21 22  2  0  0  0  0
 22 23  1  0  0  0  0
 24 29  2  0  0  0  0
 24 25  1  0  0  0  0
 25 26  2  0  0  0  0
 26 27  1  0  0  0  0
 27 28  2  0  0  0  0
 28 29  1  0  0  0  0
 30 31  1  0  0  0  0
 31 32  2  0  0  0  0
 31 33  1  0  0  0  0
 33 34  1  0  0  0  0
 34 35  1  0  0  0  0
 34 36  1  0  0  0  0
 34 37  1  0  0  0  0
M  END
> <NMREDATA_VERSION>
1.1

> <NMREDATA_LEVEL>
0

> <NMREDATA_SOLVENT>
DMSO-d6

> <NMREDATA_FORMULA>
C29H30NO6P

> <NMREDATA_SMILES>
COc1ccc2c(c1)[C@@]1(CCC(=O)O1)[C@H](N2C(=O)OC(C)(C)C)P(=O)(c1ccccc1)c1ccccc1

> <NMREDATA_ASSIGNMENT>
P16, 27.40, 16

> <NMREDATA_1D_31P>
Larmor=162
27.40, L=P16

$$$$
