
 OpenBabel06112616492D

 35 39  0  0  1  0  0  0  0  0999 V2000
   -1.6887    0.9750    0.0000 N   0  0  0  0  0  0  0  0  0  0  0  0
   -2.5331    1.4625    0.0000 C   0  0  0  0  0  0  0  0  0  0  0  0
   -3.3775    0.9750    0.0000 C   0  0  0  0  0  0  0  0  0  0  0  0
   -4.2219    1.4625    0.0000 C   0  0  3  0  0  0  0  0  0  0  0  0
   -4.2219    2.4375    0.0000 C   0  0  0  0  0  0  0  0  0  0  0  0
   -5.0662    2.9250    0.0000 C   0  0  0  0  0  0  0  0  0  0  0  0
   -5.0662    3.9000    0.0000 C   0  0  0  0  0  0  0  0  0  0  0  0
   -4.2219    4.3875    0.0000 C   0  0  0  0  0  0  0  0  0  0  0  0
   -3.3775    3.9000    0.0000 C   0  0  0  0  0  0  0  0  0  0  0  0
   -3.3775    2.9250    0.0000 C   0  0  0  0  0  0  0  0  0  0  0  0
   -5.9106    0.4875    0.0000 P   0  0  0  0  0  0  0  0  0  0  0  0
   -5.9106    1.4625    0.0000 O   0  0  0  0  0  0  0  0  0  0  0  0
   -5.5141   -0.4032    0.0000 N   0  0  0  0  0  0  0  0  0  0  0  0
   -4.5604   -0.6059    0.0000 C   0  0  0  0  0  0  0  0  0  0  0  0
   -3.9080    0.1186    0.0000 C   0  0  0  0  0  0  0  0  0  0  0  0
   -2.9543   -0.0841    0.0000 C   0  0  0  0  0  0  0  0  0  0  0  0
   -2.6530   -1.0113    0.0000 C   0  0  0  0  0  0  0  0  0  0  0  0
   -3.3054   -1.7359    0.0000 C   0  0  0  0  0  0  0  0  0  0  0  0
   -4.2591   -1.5332    0.0000 C   0  0  0  0  0  0  0  0  0  0  0  0
   -6.2386   -1.0556    0.0000 C   0  0  0  0  0  0  0  0  0  0  0  0
   -7.0830   -0.5681    0.0000 C   0  0  0  0  0  0  0  0  0  0  0  0
   -6.8803    0.3856    0.0000 N   0  0  0  0  0  0  0  0  0  0  0  0
   -7.5327    1.1102    0.0000 C   0  0  0  0  0  0  0  0  0  0  0  0
   -8.4864    0.9074    0.0000 C   0  0  0  0  0  0  0  0  0  0  0  0
   -9.1388    1.6320    0.0000 C   0  0  0  0  0  0  0  0  0  0  0  0
   -8.8375    2.5593    0.0000 C   0  0  0  0  0  0  0  0  0  0  0  0
   -7.8838    2.7620    0.0000 C   0  0  0  0  0  0  0  0  0  0  0  0
   -7.2314    2.0374    0.0000 C   0  0  0  0  0  0  0  0  0  0  0  0
   -0.8444    1.4625    0.0000 C   0  0  0  0  0  0  0  0  0  0  0  0
    0.0000    0.9750    0.0000 C   0  0  0  0  0  0  0  0  0  0  0  0
    0.8444    1.4625    0.0000 C   0  0  0  0  0  0  0  0  0  0  0  0
    1.6887    0.9750    0.0000 C   0  0  0  0  0  0  0  0  0  0  0  0
    1.6887    0.0000    0.0000 C   0  0  0  0  0  0  0  0  0  0  0  0
    0.8444   -0.4875    0.0000 C   0  0  0  0  0  0  0  0  0  0  0  0
    0.0000    0.0000    0.0000 C   0  0  0  0  0  0  0  0  0  0  0  0
  1  2  1  0  0  0  0
  1 29  1  0  0  0  0
  2  3  1  0  0  0  0
  3  4  1  0  0  0  0
  4  5  1  0  0  0  0
  4 11  1  0  0  0  0
  5 10  2  0  0  0  0
  5  6  1  0  0  0  0
  6  7  2  0  0  0  0
  7  8  1  0  0  0  0
  8  9  2  0  0  0  0
  9 10  1  0  0  0  0
 11 22  1  0  0  0  0
 11 12  2  0  0  0  0
 11 13  1  0  0  0  0
 13 14  1  0  0  0  0
 13 20  1  0  0  0  0
 14 19  2  0  0  0  0
 14 15  1  0  0  0  0
 15 16  2  0  0  0  0
 16 17  1  0  0  0  0
 17 18  2  0  0  0  0
 18 19  1  0  0  0  0
 20 21  1  0  0  0  0
 21 22  1  0  0  0  0
 22 23  1  0  0  0  0
 23 28  2  0  0  0  0
 23 24  1  0  0  0  0
 24 25  2  0  0  0  0
 25 26  1  0  0  0  0
 26 27  2  0  0  0  0
 27 28  1  0  0  0  0
 29 30  1  0  0  0  0
 30 35  2  0  0  0  0
 30 31  1  0  0  0  0
 31 32  2  0  0  0  0
 32 33  1  0  0  0  0
 33 34  2  0  0  0  0
 34 35  1  0  0  0  0
M  END
> <NMREDATA_VERSION>
1.1

> <NMREDATA_LEVEL>
0

> <NMREDATA_SOLVENT>
CDCl3

> <NMREDATA_FORMULA>
C30H32N3OP

> <NMREDATA_SMILES>
O=P1(C(c2ccccc2)CCNCc2ccccc2)N(CCN1c1ccccc1)c1ccccc1

> <NMREDATA_ASSIGNMENT>
P11, 30.77, 11

> <NMREDATA_1D_31P>
Larmor=162
30.77, L=P11

$$$$
