
 OpenBabel06112616442D

 70 81  0  0  0  0  0  0  0  0999 V2000
   -0.9643   -0.9643    0.0000 O   0  0  0  0  0  0  0  0  0  0  0  0
    0.0000   -0.9643    0.0000 P   0  0  0  0  0  0  0  0  0  0  0  0
    0.0000   -1.9286    0.0000 N   0  0  0  0  0  0  0  0  0  0  0  0
    0.8351   -2.4107    0.0000 C   0  0  0  0  0  0  0  0  0  0  0  0
    1.6702   -1.9286    0.0000 C   0  0  0  0  0  0  0  0  0  0  0  0
    2.5053   -2.4107    0.0000 C   0  0  0  0  0  0  0  0  0  0  0  0
    2.5053   -3.3750    0.0000 C   0  0  0  0  0  0  0  0  0  0  0  0
    1.6702   -3.8571    0.0000 C   0  0  0  0  0  0  0  0  0  0  0  0
    0.8351   -3.3750    0.0000 N   0  0  0  0  0  0  0  0  0  0  0  0
    0.9643   -0.9643    0.0000 N   0  0  0  0  0  0  0  0  0  0  0  0
    1.4464   -0.1292    0.0000 C   0  0  0  0  0  0  0  0  0  0  0  0
    0.9643    0.7059    0.0000 C   0  0  0  0  0  0  0  0  0  0  0  0
    1.4464    1.5410    0.0000 C   0  0  0  0  0  0  0  0  0  0  0  0
    2.4107    1.5410    0.0000 C   0  0  0  0  0  0  0  0  0  0  0  0
    2.8929    0.7059    0.0000 C   0  0  0  0  0  0  0  0  0  0  0  0
    2.4107   -0.1292    0.0000 N   0  0  0  0  0  0  0  0  0  0  0  0
    0.0000    0.0000    0.0000 O   0  0  0  0  0  0  0  0  0  0  0  0
   -0.8351    0.4821    0.0000 C   0  0  0  0  0  0  0  0  0  0  0  0
   -1.6702    0.0000    0.0000 C   0  0  0  0  0  0  0  0  0  0  0  0
   -1.6702   -0.9643    0.0000 C   0  0  0  0  0  0  0  0  0  0  0  0
   -0.8351   -1.4464    0.0000 C   0  0  0  0  0  0  0  0  0  0  0  0
   -0.8351   -2.4107    0.0000 C   0  0  0  0  0  0  0  0  0  0  0  0
   -1.6702   -2.8929    0.0000 C   0  0  0  0  0  0  0  0  0  0  0  0
   -1.6702   -3.8571    0.0000 C   0  0  0  0  0  0  0  0  0  0  0  0
   -0.8351   -4.3393    0.0000 C   0  0  0  0  0  0  0  0  0  0  0  0
   -0.8351   -5.3036    0.0000 C   0  0  0  0  0  0  0  0  0  0  0  0
   -1.6702   -5.7857    0.0000 C   0  0  0  0  0  0  0  0  0  0  0  0
   -1.6702   -6.7500    0.0000 C   0  0  0  0  0  0  0  0  0  0  0  0
   -2.5053   -7.2321    0.0000 C   0  0  0  0  0  0  0  0  0  0  0  0
   -3.3404   -6.7500    0.0000 C   0  0  0  0  0  0  0  0  0  0  0  0
   -3.3404   -5.7857    0.0000 C   0  0  0  0  0  0  0  0  0  0  0  0
   -2.5053   -5.3036    0.0000 C   0  0  0  0  0  0  0  0  0  0  0  0
   -2.5053   -4.3393    0.0000 C   0  0  0  0  0  0  0  0  0  0  0  0
   -2.5053   -2.4107    0.0000 C   0  0  0  0  0  0  0  0  0  0  0  0
   -2.5053   -1.4464    0.0000 C   0  0  0  0  0  0  0  0  0  0  0  0
   -2.5053    0.4821    0.0000 C   0  0  0  0  0  0  0  0  0  0  0  0
   -2.5053    1.4464    0.0000 C   0  0  0  0  0  0  0  0  0  0  0  0
   -3.3404    1.9286    0.0000 C   0  0  0  0  0  0  0  0  0  0  0  0
   -3.3404    2.8929    0.0000 C   0  0  0  0  0  0  0  0  0  0  0  0
   -2.5053    3.3750    0.0000 C   0  0  0  0  0  0  0  0  0  0  0  0
   -1.6702    2.8929    0.0000 C   0  0  0  0  0  0  0  0  0  0  0  0
   -1.6702    1.9286    0.0000 C   0  0  0  0  0  0  0  0  0  0  0  0
   -0.8351    1.4464    0.0000 C   0  0  0  0  0  0  0  0  0  0  0  0
    2.5053    3.3750    0.0000 C   0  0  0  0  0  0  0  0  0  0  0  0
    3.3404    2.8929    0.0000 C   0  0  0  0  0  0  0  0  0  0  0  0
    3.3404    1.9286    0.0000 O   0  0  0  0  0  0  0  0  0  0  0  0
    4.1755    3.3750    0.0000 C   0  0  0  0  0  0  0  0  0  0  0  0
    5.0106    2.8929    0.0000 C   0  0  0  0  0  0  0  0  0  0  0  0
    5.0106    1.9286    0.0000 C   0  0  0  0  0  0  0  0  0  0  0  0
    5.8457    1.4464    0.0000 C   0  0  0  0  0  0  0  0  0  0  0  0
    6.6808    1.9286    0.0000 C   0  0  0  0  0  0  0  0  0  0  0  0
    7.5159    1.4464    0.0000 C   0  0  0  0  0  0  0  0  0  0  0  0
    7.5159    0.4821    0.0000 C   0  0  0  0  0  0  0  0  0  0  0  0
    8.3510    0.0000    0.0000 C   0  0  0  0  0  0  0  0  0  0  0  0
    9.1861    0.4821    0.0000 C   0  0  0  0  0  0  0  0  0  0  0  0
   10.0212    0.0000    0.0000 C   0  0  0  0  0  0  0  0  0  0  0  0
   10.8562    0.4821    0.0000 C   0  0  0  0  0  0  0  0  0  0  0  0
   10.8562    1.4464    0.0000 C   0  0  0  0  0  0  0  0  0  0  0  0
   10.0212    1.9286    0.0000 C   0  0  0  0  0  0  0  0  0  0  0  0
    9.1861    1.4464    0.0000 C   0  0  0  0  0  0  0  0  0  0  0  0
    8.3510    1.9286    0.0000 C   0  0  0  0  0  0  0  0  0  0  0  0
    6.6808    2.8929    0.0000 C   0  0  0  0  0  0  0  0  0  0  0  0
    5.8457    3.3750    0.0000 C   0  0  0  0  0  0  0  0  0  0  0  0
    4.1755    4.3393    0.0000 C   0  0  0  0  0  0  0  0  0  0  0  0
    3.3404    4.8214    0.0000 C   0  0  0  0  0  0  0  0  0  0  0  0
    3.3404    5.7857    0.0000 C   0  0  0  0  0  0  0  0  0  0  0  0
    2.5053    6.2679    0.0000 C   0  0  0  0  0  0  0  0  0  0  0  0
    1.6702    5.7857    0.0000 C   0  0  0  0  0  0  0  0  0  0  0  0
    1.6702    4.8214    0.0000 C   0  0  0  0  0  0  0  0  0  0  0  0
    2.5053    4.3393    0.0000 C   0  0  0  0  0  0  0  0  0  0  0  0
  1  2  2  0  0  0  0
  2  3  1  0  0  0  0
  2 10  1  0  0  0  0
  2 17  1  0  0  0  0
  3  4  1  0  0  0  0
  4  9  2  0  0  0  0
  4  5  1  0  0  0  0
  5  6  2  0  0  0  0
  6  7  1  0  0  0  0
  7  8  2  0  0  0  0
  8  9  1  0  0  0  0
 10 11  1  0  0  0  0
 11 16  2  0  0  0  0
 11 12  1  0  0  0  0
 12 13  2  0  0  0  0
 13 14  1  0  0  0  0
 14 15  2  0  0  0  0
 15 16  1  0  0  0  0
 17 18  1  0  0  0  0
 18 43  2  0  0  0  0
 18 19  1  0  0  0  0
 19 20  1  0  0  0  0
 19 36  2  0  0  0  0
 20 35  2  0  0  0  0
 20 21  1  0  0  0  0
 21 22  2  0  0  0  0
 22 23  1  0  0  0  0
 23 24  1  0  0  0  0
 23 34  2  0  0  0  0
 24 33  2  0  0  0  0
 24 25  1  0  0  0  0
 25 26  2  0  0  0  0
 26 27  1  0  0  0  0
 27 32  2  0  0  0  0
 27 28  1  0  0  0  0
 28 29  2  0  0  0  0
 29 30  1  0  0  0  0
 30 31  2  0  0  0  0
 31 32  1  0  0  0  0
 32 33  1  0  0  0  0
 34 35  1  0  0  0  0
 36 37  1  0  0  0  0
 37 42  2  0  0  0  0
 37 38  1  0  0  0  0
 38 39  2  0  0  0  0
 39 40  1  0  0  0  0
 40 41  2  0  0  0  0
 41 42  1  0  0  0  0
 42 43  1  0  0  0  0
 43 44  1  0  0  0  0
 44 70  2  0  0  0  0
 44 45  1  0  0  0  0
 45 46  1  0  0  0  0
 45 47  2  0  0  0  0
 47 48  1  0  0  0  0
 47 64  1  0  0  0  0
 48 63  2  0  0  0  0
 48 49  1  0  0  0  0
 49 50  2  0  0  0  0
 50 51  1  0  0  0  0
 51 52  1  0  0  0  0
 51 62  2  0  0  0  0
 52 61  2  0  0  0  0
 52 53  1  0  0  0  0
 53 54  2  0  0  0  0
 54 55  1  0  0  0  0
 55 60  2  0  0  0  0
 55 56  1  0  0  0  0
 56 57  2  0  0  0  0
 57 58  1  0  0  0  0
 58 59  2  0  0  0  0
 59 60  1  0  0  0  0
 60 61  1  0  0  0  0
 62 63  1  0  0  0  0
 64 65  2  0  0  0  0
 65 70  1  0  0  0  0
 65 66  1  0  0  0  0
 66 67  2  0  0  0  0
 67 68  1  0  0  0  0
 68 69  2  0  0  0  0
 69 70  1  0  0  0  0
M  END
> <NMREDATA_VERSION>
1.1

> <NMREDATA_LEVEL>
0

> <NMREDATA_SOLVENT>
CDCl3

> <NMREDATA_FORMULA>
C62H43N4O3P

> <NMREDATA_SMILES>
Oc1c(cc2c(c1c1c(OP(=O)(Nc3ccccn3)Nc3ccccn3)c(cc3c1cccc3)c1ccc(cc1)c1ccc3c(c1)cccc3)cccc2)c1ccc(cc1)c1ccc2c(c1)cccc2

> <NMREDATA_ASSIGNMENT>
P2, 0.28, 2

> <NMREDATA_1D_31P>
Larmor=not_known
0.28, L=P2

$$$$
