
 OpenBabel06112616472D

 46 50  0  0  0  0  0  0  0  0999 V2000
   -1.0000   -1.0000    0.0000 O   0  0  0  0  0  0  0  0  0  0  0  0
    0.0000   -1.0000    0.0000 P   0  0  0  0  0  0  0  0  0  0  0  0
    0.0000   -2.0000    0.0000 C   0  0  0  0  0  0  0  0  0  0  0  0
    0.8660   -2.5000    0.0000 C   0  0  0  0  0  0  0  0  0  0  0  0
    0.8660   -3.5000    0.0000 C   0  0  0  0  0  0  0  0  0  0  0  0
    0.0000   -4.0000    0.0000 C   0  0  0  0  0  0  0  0  0  0  0  0
   -0.8660   -3.5000    0.0000 C   0  0  0  0  0  0  0  0  0  0  0  0
   -0.8660   -2.5000    0.0000 C   0  0  0  0  0  0  0  0  0  0  0  0
    1.0000   -1.0000    0.0000 C   0  0  0  0  0  0  0  0  0  0  0  0
    1.5000   -0.1340    0.0000 C   0  0  0  0  0  0  0  0  0  0  0  0
    2.5000   -0.1340    0.0000 C   0  0  0  0  0  0  0  0  0  0  0  0
    3.0000   -1.0000    0.0000 C   0  0  0  0  0  0  0  0  0  0  0  0
    2.5000   -1.8660    0.0000 C   0  0  0  0  0  0  0  0  0  0  0  0
    1.5000   -1.8660    0.0000 C   0  0  0  0  0  0  0  0  0  0  0  0
    0.0000    0.0000    0.0000 C   0  0  0  0  0  0  0  0  0  0  0  0
   -0.8090    0.5878    0.0000 C   0  0  0  0  0  0  0  0  0  0  0  0
   -1.7601    0.2788    0.0000 C   0  0  0  0  0  0  0  0  0  0  0  0
   -2.4292   -0.4644    0.0000 F   0  0  0  0  0  0  0  0  0  0  0  0
   -1.4511   -0.6723    0.0000 F   0  0  0  0  0  0  0  0  0  0  0  0
   -2.5032    0.9479    0.0000 C   0  0  0  0  0  0  0  0  0  0  0  0
   -2.8122    1.8990    0.0000 F   0  0  0  0  0  0  0  0  0  0  0  0
   -1.8341    1.6910    0.0000 F   0  0  0  0  0  0  0  0  0  0  0  0
   -3.4543    0.6389    0.0000 C   0  0  0  0  0  0  0  0  0  0  0  0
   -4.1234   -0.1043    0.0000 F   0  0  0  0  0  0  0  0  0  0  0  0
   -3.1453   -0.3122    0.0000 F   0  0  0  0  0  0  0  0  0  0  0  0
   -4.1974    1.3080    0.0000 C   0  0  0  0  0  0  0  0  0  0  0  0
   -5.1756    1.5159    0.0000 F   0  0  0  0  0  0  0  0  0  0  0  0
   -4.8666    0.5649    0.0000 F   0  0  0  0  0  0  0  0  0  0  0  0
   -3.9895    2.2862    0.0000 C   0  0  0  0  0  0  0  0  0  0  0  0
   -4.2985    3.2372    0.0000 F   0  0  0  0  0  0  0  0  0  0  0  0
   -4.9677    2.4941    0.0000 F   0  0  0  0  0  0  0  0  0  0  0  0
   -3.0385    2.5952    0.0000 C   0  0  0  0  0  0  0  0  0  0  0  0
   -2.3693    3.3383    0.0000 F   0  0  0  0  0  0  0  0  0  0  0  0
   -3.3475    3.5462    0.0000 F   0  0  0  0  0  0  0  0  0  0  0  0
   -2.2953    1.9260    0.0000 F   0  0  0  0  0  0  0  0  0  0  0  0
   -0.5000    1.5388    0.0000 O   0  0  0  0  0  0  0  0  0  0  0  0
    0.5000    1.5388    0.0000 C   0  0  0  0  0  0  0  0  0  0  0  0
    0.8090    0.5878    0.0000 C   0  0  0  0  0  0  0  0  0  0  0  0
    1.7872    0.3799    0.0000 C   0  0  0  0  0  0  0  0  0  0  0  0
    2.4563    1.1230    0.0000 C   0  0  0  0  0  0  0  0  0  0  0  0
    2.1473    2.0741    0.0000 C   0  0  0  0  0  0  0  0  0  0  0  0
    2.8164    2.8172    0.0000 C   0  0  0  0  0  0  0  0  0  0  0  0
    2.5074    3.7683    0.0000 C   0  0  0  0  0  0  0  0  0  0  0  0
    1.5292    3.9762    0.0000 C   0  0  0  0  0  0  0  0  0  0  0  0
    0.8601    3.2330    0.0000 C   0  0  0  0  0  0  0  0  0  0  0  0
    1.1691    2.2820    0.0000 C   0  0  0  0  0  0  0  0  0  0  0  0
  1  2  2  0  0  0  0
  2  3  1  0  0  0  0
  2  9  1  0  0  0  0
  2 15  1  0  0  0  0
  3  8  2  0  0  0  0
  3  4  1  0  0  0  0
  4  5  2  0  0  0  0
  5  6  1  0  0  0  0
  6  7  2  0  0  0  0
  7  8  1  0  0  0  0
  9 14  2  0  0  0  0
  9 10  1  0  0  0  0
 10 11  2  0  0  0  0
 11 12  1  0  0  0  0
 12 13  2  0  0  0  0
 13 14  1  0  0  0  0
 15 38  1  0  0  0  0
 15 16  2  0  0  0  0
 16 17  1  0  0  0  0
 16 36  1  0  0  0  0
 17 18  1  0  0  0  0
 17 19  1  0  0  0  0
 17 20  1  0  0  0  0
 20 21  1  0  0  0  0
 20 22  1  0  0  0  0
 20 23  1  0  0  0  0
 23 24  1  0  0  0  0
 23 25  1  0  0  0  0
 23 26  1  0  0  0  0
 26 27  1  0  0  0  0
 26 28  1  0  0  0  0
 26 29  1  0  0  0  0
 29 30  1  0  0  0  0
 29 31  1  0  0  0  0
 29 32  1  0  0  0  0
 32 33  1  0  0  0  0
 32 34  1  0  0  0  0
 32 35  1  0  0  0  0
 36 37  1  0  0  0  0
 37 46  2  0  0  0  0
 37 38  1  0  0  0  0
 38 39  2  0  0  0  0
 39 40  1  0  0  0  0
 40 41  2  0  0  0  0
 41 46  1  0  0  0  0
 41 42  1  0  0  0  0
 42 43  2  0  0  0  0
 43 44  1  0  0  0  0
 44 45  2  0  0  0  0
 45 46  1  0  0  0  0
M  END
> <NMREDATA_VERSION>
1.1

> <NMREDATA_LEVEL>
0

> <NMREDATA_SOLVENT>
CDCl3

> <NMREDATA_FORMULA>
C30H16F13O2P

> <NMREDATA_SMILES>
O=P(c1c2ccc3c(c2oc1C(C(C(C(C(C(F)(F)F)(F)F)(F)F)(F)F)(F)F)(F)F)cccc3)(c1ccccc1)c1ccccc1

> <NMREDATA_ASSIGNMENT>
P2, 21.37, 2

> <NMREDATA_1D_31P>
Larmor=162
21.37, L=P2

$$$$
