
 OpenBabel06112616462D

 52 56  0  0  1  0  0  0  0  0999 V2000
    5.0000   -2.6340    0.0000 C    0  0  0  0  0  0  0  0  0  0  0  0
    6.0000   -2.6340    0.0000 C    0  0  0  0  0  0  0  0  0  0  0  0
    6.5000   -3.5000    0.0000 C    0  0  0  0  0  0  0  0  0  0  0  0
    6.0000   -4.3660    0.0000 C    0  0  3  0  0  0  0  0  0  0  0  0
    6.5000   -5.2321    0.0000 C    0  0  0  0  0  0  0  0  0  0  0  0
    7.5000   -5.2321    0.0000 C    0  0  0  0  0  0  0  0  0  0  0  0
    8.0000   -4.3660    0.0000 C    0  0  0  0  0  0  0  0  0  0  0  0
    9.0000   -4.3660    0.0000 C    0  0  0  0  0  0  0  0  0  0  0  0
    9.5000   -3.5000    0.0000 O    0  0  0  0  0  0  0  0  0  0  0  0
   10.5000   -3.5000    0.0000 Si   0  0  0  0  0  0  0  0  0  0  0  0
   10.5000   -4.5000    0.0000 C    0  0  0  0  0  0  0  0  0  0  0  0
   11.3660   -5.0000    0.0000 C    0  0  0  0  0  0  0  0  0  0  0  0
   11.3660   -6.0000    0.0000 C    0  0  0  0  0  0  0  0  0  0  0  0
   10.5000   -6.5000    0.0000 C    0  0  0  0  0  0  0  0  0  0  0  0
    9.6340   -6.0000    0.0000 C    0  0  0  0  0  0  0  0  0  0  0  0
    9.6340   -5.0000    0.0000 C    0  0  0  0  0  0  0  0  0  0  0  0
   11.5000   -3.5000    0.0000 C    0  0  0  0  0  0  0  0  0  0  0  0
   12.0000   -2.6340    0.0000 C    0  0  0  0  0  0  0  0  0  0  0  0
   13.0000   -2.6340    0.0000 C    0  0  0  0  0  0  0  0  0  0  0  0
   13.5000   -3.5000    0.0000 C    0  0  0  0  0  0  0  0  0  0  0  0
   13.0000   -4.3660    0.0000 C    0  0  0  0  0  0  0  0  0  0  0  0
   12.0000   -4.3660    0.0000 C    0  0  0  0  0  0  0  0  0  0  0  0
   10.5000   -2.5000    0.0000 C    0  0  0  0  0  0  0  0  0  0  0  0
   10.0000   -1.6340    0.0000 C    0  0  0  0  0  0  0  0  0  0  0  0
    9.5000   -2.5000    0.0000 C    0  0  0  0  0  0  0  0  0  0  0  0
   11.3660   -2.0000    0.0000 C    0  0  0  0  0  0  0  0  0  0  0  0
    5.0000   -4.3660    0.0000 O    0  0  0  0  0  0  0  0  0  0  0  0
    4.5000   -3.5000    0.0000 C    0  0  3  0  0  0  0  0  0  0  0  0
    3.5000   -3.5000    0.0000 P    0  3  0  0  0  0  0  0  0  0  0  0
    3.5000   -2.5000    0.0000 C    0  0  0  0  0  0  0  0  0  0  0  0
    2.6340   -2.0000    0.0000 C    0  0  0  0  0  0  0  0  0  0  0  0
    2.6340   -1.0000    0.0000 C    0  0  0  0  0  0  0  0  0  0  0  0
    3.5000   -0.5000    0.0000 C    0  0  0  0  0  0  0  0  0  0  0  0
    4.3660   -1.0000    0.0000 C    0  0  0  0  0  0  0  0  0  0  0  0
    4.3660   -2.0000    0.0000 C    0  0  0  0  0  0  0  0  0  0  0  0
    2.5000   -3.5000    0.0000 C    0  0  0  0  0  0  0  0  0  0  0  0
    2.0000   -4.3660    0.0000 C    0  0  0  0  0  0  0  0  0  0  0  0
    1.0000   -4.3660    0.0000 C    0  0  0  0  0  0  0  0  0  0  0  0
    0.5000   -3.5000    0.0000 C    0  0  0  0  0  0  0  0  0  0  0  0
    1.0000   -2.6340    0.0000 C    0  0  0  0  0  0  0  0  0  0  0  0
    2.0000   -2.6340    0.0000 C    0  0  0  0  0  0  0  0  0  0  0  0
    3.5000   -4.5000    0.0000 C    0  0  0  0  0  0  0  0  0  0  0  0
    4.3660   -5.0000    0.0000 C    0  0  0  0  0  0  0  0  0  0  0  0
    4.3660   -6.0000    0.0000 C    0  0  0  0  0  0  0  0  0  0  0  0
    3.5000   -6.5000    0.0000 C    0  0  0  0  0  0  0  0  0  0  0  0
    2.6340   -6.0000    0.0000 C    0  0  0  0  0  0  0  0  0  0  0  0
    2.6340   -5.0000    0.0000 C    0  0  0  0  0  0  0  0  0  0  0  0
    1.5000   -9.5000    0.0000 F    0  0  0  0  0  0  0  0  0  0  0  0
    1.5000   -8.5000    0.0000 B    0  5  0  0  0  0  0  0  0  0  0  0
    2.5000   -8.5000    0.0000 F    0  0  0  0  0  0  0  0  0  0  0  0
    1.5000   -7.5000    0.0000 F    0  0  0  0  0  0  0  0  0  0  0  0
    0.5000   -8.5000    0.0000 F    0  0  0  0  0  0  0  0  0  0  0  0
  1 28  1  0  0  0  0
  1  2  1  0  0  0  0
  2  3  1  0  0  0  0
  3  4  1  0  0  0  0
  4  5  1  0  0  0  0
  4 27  1  0  0  0  0
  5  6  2  0  0  0  0
  6  7  1  0  0  0  0
  7  8  1  0  0  0  0
  8  9  1  0  0  0  0
  9 10  1  0  0  0  0
 10 11  1  0  0  0  0
 10 17  1  0  0  0  0
 10 23  1  0  0  0  0
 11 16  2  0  0  0  0
 11 12  1  0  0  0  0
 12 13  2  0  0  0  0
 13 14  1  0  0  0  0
 14 15  2  0  0  0  0
 15 16  1  0  0  0  0
 17 22  2  0  0  0  0
 17 18  1  0  0  0  0
 18 19  2  0  0  0  0
 19 20  1  0  0  0  0
 20 21  2  0  0  0  0
 21 22  1  0  0  0  0
 23 24  1  0  0  0  0
 23 25  1  0  0  0  0
 23 26  1  0  0  0  0
 27 28  1  0  0  0  0
 28 29  1  0  0  0  0
 29 30  1  0  0  0  0
 29 36  1  0  0  0  0
 29 42  1  0  0  0  0
 30 35  2  0  0  0  0
 30 31  1  0  0  0  0
 31 32  2  0  0  0  0
 32 33  1  0  0  0  0
 33 34  2  0  0  0  0
 34 35  1  0  0  0  0
 36 41  2  0  0  0  0
 36 37  1  0  0  0  0
 37 38  2  0  0  0  0
 38 39  1  0  0  0  0
 39 40  2  0  0  0  0
 40 41  1  0  0  0  0
 42 47  2  0  0  0  0
 42 43  1  0  0  0  0
 43 44  2  0  0  0  0
 44 45  1  0  0  0  0
 45 46  2  0  0  0  0
 46 47  1  0  0  0  0
 48 49  1  0  0  0  0
 49 50  1  0  0  0  0
 49 51  1  0  0  0  0
 49 52  1  0  0  0  0
M  END
> <NMREDATA_VERSION>
1.1

> <NMREDATA_LEVEL>
0

> <NMREDATA_SOLVENT>
CDCl3

> <NMREDATA_FORMULA>
C43H48BF4O2PSi

> <NMREDATA_SMILES>
CC([Si](c1ccccc1)(c1ccccc1)OCC/C=C\C1CCCC(O1)P(c1ccccc1)(c1ccccc1)c1ccccc1)(C)C.F[B](F)(F)F

> <NMREDATA_ASSIGNMENT>
P29, 20.20, 29

> <NMREDATA_1D_31P>
Larmor=250
20.20, L=P29

$$$$
