
 OpenBabel06112616472D

 42 45  0  0  1  0  0  0  0  0999 V2000
    7.9307   -4.5268    0.0000 C   0  0  0  0  0  0  0  0  0  0  0  0
    8.5185   -3.7178    0.0000 C   0  0  0  0  0  0  0  0  0  0  0  0
    8.1118   -2.8043    0.0000 C   0  0  0  0  0  0  0  0  0  0  0  0
    7.1172   -2.6997    0.0000 C   0  0  0  0  0  0  0  0  0  0  0  0
    6.7105   -1.7862    0.0000 C   0  0  0  0  0  0  0  0  0  0  0  0
    5.7160   -1.6817    0.0000 C   0  0  0  0  0  0  0  0  0  0  0  0
    5.3092   -0.7681    0.0000 O   0  0  0  0  0  0  0  0  0  0  0  0
    4.3147   -0.6636    0.0000 C   0  0  2  0  0  0  0  0  0  0  0  0
    3.6456   -1.4067    0.0000 O   0  0  0  0  0  0  0  0  0  0  0  0
    2.7321   -1.0000    0.0000 C   0  0  2  0  0  0  0  0  0  0  0  0
    1.8660   -1.5000    0.0000 C   0  0  0  0  0  0  0  0  0  0  0  0
    1.0000   -1.0000    0.0000 O   0  0  0  0  0  0  0  0  0  0  0  0
    1.0000    0.0000    0.0000 P   0  0  3  0  0  0  0  0  0  0  0  0
    2.0000    0.0000    0.0000 O   0  0  0  0  0  0  0  0  0  0  0  0
    1.0000    1.0000    0.0000 O   0  0  0  0  0  0  0  0  0  0  0  0
    0.0000    0.0000    0.0000 O   0  0  0  0  0  0  0  0  0  0  0  0
   -1.0000    0.0000    0.0000 P   0  0  3  0  0  0  0  0  0  0  0  0
   -1.0000    1.0000    0.0000 O   0  0  0  0  0  0  0  0  0  0  0  0
   -2.0000    0.0000    0.0000 O   0  0  0  0  0  0  0  0  0  0  0  0
   -1.0000   -1.0000    0.0000 O   0  0  0  0  0  0  0  0  0  0  0  0
   -1.8660   -1.5000    0.0000 C   0  0  0  0  0  0  0  0  0  0  0  0
   -2.7321   -1.0000    0.0000 C   0  0  1  0  0  0  0  0  0  0  0  0
   -3.6456   -1.4067    0.0000 O   0  0  0  0  0  0  0  0  0  0  0  0
   -4.3147   -0.6636    0.0000 C   0  0  1  0  0  0  0  0  0  0  0  0
   -5.3092   -0.7681    0.0000 N   0  0  0  0  0  0  0  0  0  0  0  0
   -5.8092   -1.6341    0.0000 C   0  0  0  0  0  0  0  0  0  0  0  0
   -6.7874   -1.4262    0.0000 N   0  0  0  0  0  0  0  0  0  0  0  0
   -6.8919   -0.4317    0.0000 C   0  0  0  0  0  0  0  0  0  0  0  0
   -7.7009    0.1561    0.0000 C   0  0  0  0  0  0  0  0  0  0  0  0
   -8.6145   -0.2507    0.0000 N   0  0  0  0  0  0  0  0  0  0  0  0
   -7.5964    1.1506    0.0000 N   0  0  0  0  0  0  0  0  0  0  0  0
   -6.6829    1.5573    0.0000 C   0  0  0  0  0  0  0  0  0  0  0  0
   -5.8739    0.9695    0.0000 N   0  0  0  0  0  0  0  0  0  0  0  0
   -5.9784   -0.0250    0.0000 C   0  0  0  0  0  0  0  0  0  0  0  0
   -3.8147    0.2024    0.0000 C   0  0  2  0  0  0  0  0  0  0  0  0
   -4.2215    1.1160    0.0000 O   0  0  0  0  0  0  0  0  0  0  0  0
   -2.8366   -0.0055    0.0000 C   0  0  2  0  0  0  0  0  0  0  0  0
   -2.0934    0.6637    0.0000 O   0  0  0  0  0  0  0  0  0  0  0  0
    2.8366   -0.0055    0.0000 C   0  0  1  0  0  0  0  0  0  0  0  0
    2.0934    0.6637    0.0000 O   0  0  0  0  0  0  0  0  0  0  0  0
    3.8147    0.2024    0.0000 C   0  0  1  0  0  0  0  0  0  0  0  0
    4.2215    1.1160    0.0000 O   0  0  0  0  0  0  0  0  0  0  0  0
  1  2  2  0  0  0  0
  2  3  1  0  0  0  0
  3  4  1  0  0  0  0
  4  5  1  0  0  0  0
  5  6  1  0  0  0  0
  6  7  1  0  0  0  0
  8  7  1  6  0  0  0
  8  9  1  0  0  0  0
  8 41  1  0  0  0  0
  9 10  1  0  0  0  0
 10 11  1  6  0  0  0
 10 39  1  0  0  0  0
 11 12  1  0  0  0  0
 12 13  1  0  0  0  0
 13 14  2  0  0  0  0
 13 15  1  0  0  0  0
 13 16  1  0  0  0  0
 16 17  1  0  0  0  0
 17 18  2  0  0  0  0
 17 19  1  0  0  0  0
 17 20  1  0  0  0  0
 20 21  1  0  0  0  0
 22 21  1  1  0  0  0
 22 23  1  0  0  0  0
 22 37  1  0  0  0  0
 23 24  1  0  0  0  0
 24 25  1  1  0  0  0
 24 35  1  0  0  0  0
 25 34  1  0  0  0  0
 25 26  1  0  0  0  0
 26 27  2  0  0  0  0
 27 28  1  0  0  0  0
 28 34  2  0  0  0  0
 28 29  1  0  0  0  0
 29 30  1  0  0  0  0
 29 31  2  0  0  0  0
 31 32  1  0  0  0  0
 32 33  2  0  0  0  0
 33 34  1  0  0  0  0
 35 36  1  6  0  0  0
 35 37  1  0  0  0  0
 37 38  1  6  0  0  0
 39 40  1  1  0  0  0
 39 41  1  0  0  0  0
 41 42  1  1  0  0  0
M  END
> <NMREDATA_VERSION>
1.1

> <NMREDATA_LEVEL>
0

> <NMREDATA_SOLVENT>
D2O

> <NMREDATA_FORMULA>
C21H33N5O14P2

> <NMREDATA_SMILES>
C=CCCCCO[C@@H]1O[C@@H]([C@H]([C@H]1O)O)COP(=O)(OP(=O)(OC[C@H]1O[C@H]([C@@H]([C@@H]1O)O)n1cnc2c1ncnc2N)O)O

> <NMREDATA_ASSIGNMENT>
P13, -11.23, 13
P17, -11.23, 17

> <NMREDATA_1D_31P>
Larmor=243
-11.23, L=P13
-11.23, L=P17

$$$$
