
 OpenBabel06112616472D

 25 27  0  0  0  0  0  0  0  0999 V2000
   -2.5000   -5.3301    0.0000 O    0  0  0  0  0  0  0  0  0  0  0  0
   -3.0000   -4.4641    0.0000 C    0  0  0  0  0  0  0  0  0  0  0  0
   -4.0000   -4.4641    0.0000 C    0  0  0  0  0  0  0  0  0  0  0  0
   -4.5000   -5.3301    0.0000 Cl   0  0  0  0  0  0  0  0  0  0  0  0
   -4.5000   -3.5981    0.0000 C    0  0  0  0  0  0  0  0  0  0  0  0
   -5.5000   -3.5981    0.0000 C    0  0  0  0  0  0  0  0  0  0  0  0
   -6.0000   -4.4641    0.0000 C    0  0  0  0  0  0  0  0  0  0  0  0
   -7.0000   -4.4641    0.0000 C    0  0  0  0  0  0  0  0  0  0  0  0
   -7.5000   -3.5981    0.0000 C    0  0  0  0  0  0  0  0  0  0  0  0
   -7.0000   -2.7321    0.0000 C    0  0  0  0  0  0  0  0  0  0  0  0
   -6.0000   -2.7321    0.0000 C    0  0  0  0  0  0  0  0  0  0  0  0
   -4.0000   -2.7321    0.0000 O    0  0  0  0  0  0  0  0  0  0  0  0
   -3.0000   -2.7321    0.0000 C    0  0  0  0  0  0  0  0  0  0  0  0
   -2.5000   -1.8660    0.0000 C    0  0  0  0  0  0  0  0  0  0  0  0
   -1.5000   -1.8660    0.0000 C    0  0  0  0  0  0  0  0  0  0  0  0
   -1.0000   -1.0000    0.0000 O    0  0  0  0  0  0  0  0  0  0  0  0
    0.0000   -1.0000    0.0000 P    0  0  0  0  0  0  0  0  0  0  0  0
    0.0000   -2.0000    0.0000 O    0  0  0  0  0  0  0  0  0  0  0  0
    1.0000   -1.0000    0.0000 O    0  0  0  0  0  0  0  0  0  0  0  0
    1.5000   -0.1340    0.0000 C    0  0  0  0  0  0  0  0  0  0  0  0
    0.0000    0.0000    0.0000 O    0  0  0  0  0  0  0  0  0  0  0  0
    0.8660    0.5000    0.0000 C    0  0  0  0  0  0  0  0  0  0  0  0
   -1.0000   -2.7321    0.0000 C    0  0  0  0  0  0  0  0  0  0  0  0
   -1.5000   -3.5981    0.0000 C    0  0  0  0  0  0  0  0  0  0  0  0
   -2.5000   -3.5981    0.0000 C    0  0  0  0  0  0  0  0  0  0  0  0
  1  2  2  0  0  0  0
  2 25  1  0  0  0  0
  2  3  1  0  0  0  0
  3  4  1  0  0  0  0
  3  5  2  0  0  0  0
  5  6  1  0  0  0  0
  5 12  1  0  0  0  0
  6 11  2  0  0  0  0
  6  7  1  0  0  0  0
  7  8  2  0  0  0  0
  8  9  1  0  0  0  0
  9 10  2  0  0  0  0
 10 11  1  0  0  0  0
 12 13  1  0  0  0  0
 13 25  2  0  0  0  0
 13 14  1  0  0  0  0
 14 15  2  0  0  0  0
 15 16  1  0  0  0  0
 15 23  1  0  0  0  0
 16 17  1  0  0  0  0
 17 18  2  0  0  0  0
 17 19  1  0  0  0  0
 17 21  1  0  0  0  0
 19 20  1  0  0  0  0
 21 22  1  0  0  0  0
 23 24  2  0  0  0  0
 24 25  1  0  0  0  0
M  END
> <NMREDATA_VERSION>
1.1

> <NMREDATA_LEVEL>
0

> <NMREDATA_SOLVENT>
CDCl3

> <NMREDATA_FORMULA>
C17H14ClO6P

> <NMREDATA_SMILES>
COP(=O)(Oc1ccc2c(c1)oc(c(c2=O)Cl)c1ccccc1)OC

> <NMREDATA_ASSIGNMENT>
P17, -4.80, 17

> <NMREDATA_1D_31P>
Larmor=162
-4.80, L=P17

$$$$
