
 OpenBabel06112616472D

 36 38  0  0  1  0  0  0  0  0999 V2000
   10.8660   -2.5000    0.0000 O   0  0  0  0  0  0  0  0  0  0  0  0
   10.8660   -1.5000    0.0000 S   0  0  0  0  0  0  0  0  0  0  0  0
   11.8660   -1.5000    0.0000 O   0  0  0  0  0  0  0  0  0  0  0  0
   10.8660   -0.5000    0.0000 O   0  5  0  0  0  0  0  0  0  0  0  0
    9.8660   -1.5000    0.0000 C   0  0  0  0  0  0  0  0  0  0  0  0
    9.0000   -2.0000    0.0000 F   0  0  0  0  0  0  0  0  0  0  0  0
    9.8660   -2.5000    0.0000 F   0  0  0  0  0  0  0  0  0  0  0  0
    9.3660   -0.6340    0.0000 F   0  0  0  0  0  0  0  0  0  0  0  0
    8.0000   -2.6340    0.0000 C   0  0  0  0  0  0  0  0  0  0  0  0
    7.5000   -3.5000    0.0000 C   0  0  0  0  0  0  0  0  0  0  0  0
    6.5000   -3.5000    0.0000 C   0  0  0  0  0  0  0  0  0  0  0  0
    6.0000   -2.6340    0.0000 C   0  0  0  0  0  0  0  0  0  0  0  0
    5.0000   -2.6340    0.0000 S   0  0  0  0  0  0  0  0  0  0  0  0
    4.5000   -3.5000    0.0000 C   0  0  3  0  0  0  0  0  0  0  0  0
    5.0000   -4.3660    0.0000 C   0  0  0  0  0  0  0  0  0  0  0  0
    3.5000   -3.5000    0.0000 P   0  3  0  0  0  0  0  0  0  0  0  0
    3.5000   -4.5000    0.0000 C   0  0  0  0  0  0  0  0  0  0  0  0
    2.6340   -5.0000    0.0000 C   0  0  0  0  0  0  0  0  0  0  0  0
    2.6340   -6.0000    0.0000 C   0  0  0  0  0  0  0  0  0  0  0  0
    3.5000   -6.5000    0.0000 C   0  0  0  0  0  0  0  0  0  0  0  0
    4.3660   -6.0000    0.0000 C   0  0  0  0  0  0  0  0  0  0  0  0
    4.3660   -5.0000    0.0000 C   0  0  0  0  0  0  0  0  0  0  0  0
    2.5000   -3.5000    0.0000 C   0  0  0  0  0  0  0  0  0  0  0  0
    2.0000   -2.6340    0.0000 C   0  0  0  0  0  0  0  0  0  0  0  0
    1.0000   -2.6340    0.0000 C   0  0  0  0  0  0  0  0  0  0  0  0
    0.5000   -3.5000    0.0000 C   0  0  0  0  0  0  0  0  0  0  0  0
    1.0000   -4.3660    0.0000 C   0  0  0  0  0  0  0  0  0  0  0  0
    2.0000   -4.3660    0.0000 C   0  0  0  0  0  0  0  0  0  0  0  0
    3.5000   -2.5000    0.0000 C   0  0  0  0  0  0  0  0  0  0  0  0
    4.3660   -2.0000    0.0000 C   0  0  0  0  0  0  0  0  0  0  0  0
    4.3660   -1.0000    0.0000 C   0  0  0  0  0  0  0  0  0  0  0  0
    3.5000   -0.5000    0.0000 C   0  0  0  0  0  0  0  0  0  0  0  0
    2.6340   -1.0000    0.0000 C   0  0  0  0  0  0  0  0  0  0  0  0
    2.6340   -2.0000    0.0000 C   0  0  0  0  0  0  0  0  0  0  0  0
    6.5000   -1.7679    0.0000 C   0  0  0  0  0  0  0  0  0  0  0  0
    7.5000   -1.7679    0.0000 C   0  0  0  0  0  0  0  0  0  0  0  0
  1  2  2  0  0  0  0
  2  3  2  0  0  0  0
  2  4  1  0  0  0  0
  2  5  1  0  0  0  0
  5  6  1  0  0  0  0
  5  7  1  0  0  0  0
  5  8  1  0  0  0  0
  9 36  2  0  0  0  0
  9 10  1  0  0  0  0
 10 11  2  0  0  0  0
 11 12  1  0  0  0  0
 12 13  1  0  0  0  0
 12 35  2  0  0  0  0
 13 14  1  0  0  0  0
 14 15  1  0  0  0  0
 14 16  1  0  0  0  0
 16 17  1  0  0  0  0
 16 23  1  0  0  0  0
 16 29  1  0  0  0  0
 17 22  2  0  0  0  0
 17 18  1  0  0  0  0
 18 19  2  0  0  0  0
 19 20  1  0  0  0  0
 20 21  2  0  0  0  0
 21 22  1  0  0  0  0
 23 28  2  0  0  0  0
 23 24  1  0  0  0  0
 24 25  2  0  0  0  0
 25 26  1  0  0  0  0
 26 27  2  0  0  0  0
 27 28  1  0  0  0  0
 29 34  2  0  0  0  0
 29 30  1  0  0  0  0
 30 31  2  0  0  0  0
 31 32  1  0  0  0  0
 32 33  2  0  0  0  0
 33 34  1  0  0  0  0
 35 36  1  0  0  0  0
M  END
> <NMREDATA_VERSION>
1.1

> <NMREDATA_LEVEL>
0

> <NMREDATA_SOLVENT>
CDCl3

> <NMREDATA_FORMULA>
C27H24F3O3PS2

> <NMREDATA_SMILES>
FC(S(=O)(=O)[O-])(F)F.CC([P+](c1ccccc1)(c1ccccc1)c1ccccc1)Sc1ccccc1

> <NMREDATA_ASSIGNMENT>
P16, 27.90, 16

> <NMREDATA_1D_31P>
Larmor=162
27.90, L=P16

$$$$
