
 OpenBabel06112616472D

 46 52  0  0  1  0  0  0  0  0999 V2000
   -2.9612   -7.0514    0.0000 O   0  0  0  0  0  0  0  0  0  0  0  0
   -3.1691   -6.0733    0.0000 C   0  0  0  0  0  0  0  0  0  0  0  0
   -4.0827   -5.6665    0.0000 N   0  0  0  0  0  0  0  0  0  0  0  0
   -4.9487   -6.1665    0.0000 C   0  0  0  0  0  0  0  0  0  0  0  0
   -4.9487   -7.1665    0.0000 C   0  0  0  0  0  0  0  0  0  0  0  0
   -5.8147   -7.6665    0.0000 C   0  0  0  0  0  0  0  0  0  0  0  0
   -6.6808   -7.1665    0.0000 C   0  0  0  0  0  0  0  0  0  0  0  0
   -6.6808   -6.1665    0.0000 C   0  0  0  0  0  0  0  0  0  0  0  0
   -5.8147   -5.6665    0.0000 C   0  0  0  0  0  0  0  0  0  0  0  0
   -3.9781   -4.6720    0.0000 C   0  0  0  0  0  0  0  0  0  0  0  0
   -4.7213   -4.0029    0.0000 O   0  0  0  0  0  0  0  0  0  0  0  0
   -3.0000   -4.4641    0.0000 N   0  0  0  0  0  0  0  0  0  0  0  0
   -2.5000   -5.3301    0.0000 N   0  0  0  0  0  0  0  0  0  0  0  0
   -1.5000   -5.3301    0.0000 C   0  0  0  0  0  0  0  0  0  0  0  0
   -1.0000   -6.1962    0.0000 C   0  0  0  0  0  0  0  0  0  0  0  0
    0.0000   -6.1962    0.0000 C   0  0  0  0  0  0  0  0  0  0  0  0
    0.5000   -5.3301    0.0000 C   0  0  0  0  0  0  0  0  0  0  0  0
    0.0000   -4.4641    0.0000 C   0  0  0  0  0  0  0  0  0  0  0  0
   -1.0000   -4.4641    0.0000 C   0  0  0  0  0  0  0  0  0  0  0  0
   -1.5000   -3.5981    0.0000 C   0  0  3  0  0  0  0  0  0  0  0  0
   -1.0000   -2.7321    0.0000 C   0  0  0  0  0  0  0  0  0  0  0  0
   -1.5000   -1.8660    0.0000 C   0  0  0  0  0  0  0  0  0  0  0  0
   -1.0000   -1.0000    0.0000 O   0  0  0  0  0  0  0  0  0  0  0  0
    0.0000   -1.0000    0.0000 P   0  0  0  0  0  0  0  0  0  0  0  0
    0.0000   -2.0000    0.0000 O   0  0  0  0  0  0  0  0  0  0  0  0
    1.0000   -1.0000    0.0000 C   0  0  0  0  0  0  0  0  0  0  0  0
    1.5000   -0.1340    0.0000 C   0  0  0  0  0  0  0  0  0  0  0  0
    2.5000   -0.1340    0.0000 C   0  0  0  0  0  0  0  0  0  0  0  0
    3.0000   -1.0000    0.0000 C   0  0  0  0  0  0  0  0  0  0  0  0
    2.5000   -1.8660    0.0000 C   0  0  0  0  0  0  0  0  0  0  0  0
    1.5000   -1.8660    0.0000 C   0  0  0  0  0  0  0  0  0  0  0  0
    0.0000    0.0000    0.0000 C   0  0  0  0  0  0  0  0  0  0  0  0
   -0.8660    0.5000    0.0000 C   0  0  0  0  0  0  0  0  0  0  0  0
   -0.8660    1.5000    0.0000 C   0  0  0  0  0  0  0  0  0  0  0  0
    0.0000    2.0000    0.0000 C   0  0  0  0  0  0  0  0  0  0  0  0
    0.8660    1.5000    0.0000 C   0  0  0  0  0  0  0  0  0  0  0  0
    0.8660    0.5000    0.0000 C   0  0  0  0  0  0  0  0  0  0  0  0
   -2.5000   -1.8660    0.0000 C   0  0  0  0  0  0  0  0  0  0  0  0
   -3.0000   -2.7321    0.0000 C   0  0  0  0  0  0  0  0  0  0  0  0
   -4.0000   -2.7321    0.0000 C   0  0  0  0  0  0  0  0  0  0  0  0
   -4.5000   -1.8660    0.0000 C   0  0  0  0  0  0  0  0  0  0  0  0
   -4.0000   -1.0000    0.0000 C   0  0  0  0  0  0  0  0  0  0  0  0
   -3.0000   -1.0000    0.0000 C   0  0  0  0  0  0  0  0  0  0  0  0
   -2.5000   -3.5981    0.0000 C   0  0  0  0  0  0  0  0  0  0  0  0
   -2.5000   -2.5981    0.0000 F   0  0  0  0  0  0  0  0  0  0  0  0
   -3.3660   -3.0981    0.0000 F   0  0  0  0  0  0  0  0  0  0  0  0
  1  2  2  0  0  0  0
  2 13  1  0  0  0  0
  2  3  1  0  0  0  0
  3  4  1  0  0  0  0
  3 10  1  0  0  0  0
  4  9  2  0  0  0  0
  4  5  1  0  0  0  0
  5  6  2  0  0  0  0
  6  7  1  0  0  0  0
  7  8  2  0  0  0  0
  8  9  1  0  0  0  0
 10 11  2  0  0  0  0
 10 12  1  0  0  0  0
 12 44  1  0  0  0  0
 12 13  1  0  0  0  0
 13 14  1  0  0  0  0
 14 19  2  0  0  0  0
 14 15  1  0  0  0  0
 15 16  2  0  0  0  0
 16 17  1  0  0  0  0
 17 18  2  0  0  0  0
 18 19  1  0  0  0  0
 19 20  1  0  0  0  0
 20 21  1  0  0  0  0
 20 44  1  0  0  0  0
 21 22  2  0  0  0  0
 22 23  1  0  0  0  0
 22 38  1  0  0  0  0
 23 24  1  0  0  0  0
 24 25  2  0  0  0  0
 24 26  1  0  0  0  0
 24 32  1  0  0  0  0
 26 31  2  0  0  0  0
 26 27  1  0  0  0  0
 27 28  2  0  0  0  0
 28 29  1  0  0  0  0
 29 30  2  0  0  0  0
 30 31  1  0  0  0  0
 32 37  2  0  0  0  0
 32 33  1  0  0  0  0
 33 34  2  0  0  0  0
 34 35  1  0  0  0  0
 35 36  2  0  0  0  0
 36 37  1  0  0  0  0
 38 43  2  0  0  0  0
 38 39  1  0  0  0  0
 39 40  2  0  0  0  0
 40 41  1  0  0  0  0
 41 42  2  0  0  0  0
 42 43  1  0  0  0  0
 44 45  1  0  0  0  0
 44 46  1  0  0  0  0
M  END
> <NMREDATA_VERSION>
1.1

> <NMREDATA_LEVEL>
0

> <NMREDATA_SOLVENT>
CDCl3

> <NMREDATA_FORMULA>
C36H26F2N3O4P

> <NMREDATA_SMILES>
O=c1n(c2ccccc2)c(=O)n2n1-c1ccccc1C(C2(F)F)/C=C(\c1ccccc1)/OP(=O)(c1ccccc1)c1ccccc1

> <NMREDATA_ASSIGNMENT>
P24, 32.04, 24

> <NMREDATA_1D_31P>
Larmor=162
32.04, L=P24

$$$$
