
 OpenBabel06112616482D

 26 27  0  0  1  0  0  0  0  0999 V2000
    6.5000    1.8660    0.0000 Cl   0  0  0  0  0  0  0  0  0  0  0  0
    5.5000    1.8660    0.0000 C    0  0  0  0  0  0  0  0  0  0  0  0
    5.0000    1.0000    0.0000 C    0  0  0  0  0  0  0  0  0  0  0  0
    4.0000    1.0000    0.0000 C    0  0  0  0  0  0  0  0  0  0  0  0
    3.5000    1.8660    0.0000 C    0  0  0  0  0  0  0  0  0  0  0  0
    2.5000    1.8660    0.0000 C    0  0  0  0  0  0  0  0  0  0  0  0
    2.0000    1.0000    0.0000 N    0  0  0  0  0  0  0  0  0  0  0  0
    1.0000    1.0000    0.0000 C    0  0  3  0  0  0  0  0  0  0  0  0
    1.0000    0.0000    0.0000 P    0  0  0  0  0  0  0  0  0  0  0  0
    2.0000    0.0000    0.0000 O    0  0  0  0  0  0  0  0  0  0  0  0
    2.5000   -0.8660    0.0000 C    0  0  0  0  0  0  0  0  0  0  0  0
    2.0000   -1.7321    0.0000 C    0  0  0  0  0  0  0  0  0  0  0  0
    1.0000   -1.0000    0.0000 O    0  0  0  0  0  0  0  0  0  0  0  0
    0.1340   -1.5000    0.0000 C    0  0  0  0  0  0  0  0  0  0  0  0
    0.1340   -2.5000    0.0000 C    0  0  0  0  0  0  0  0  0  0  0  0
    0.0000    0.0000    0.0000 O    0  0  0  0  0  0  0  0  0  0  0  0
    0.0000    1.0000    0.0000 C    0  0  0  0  0  0  0  0  0  0  0  0
   -0.5000    1.8660    0.0000 C    0  0  0  0  0  0  0  0  0  0  0  0
   -1.5000    1.8660    0.0000 C    0  0  0  0  0  0  0  0  0  0  0  0
   -2.0000    1.0000    0.0000 C    0  0  0  0  0  0  0  0  0  0  0  0
   -1.5000    0.1340    0.0000 C    0  0  0  0  0  0  0  0  0  0  0  0
   -0.5000    0.1340    0.0000 C    0  0  0  0  0  0  0  0  0  0  0  0
    1.0000    2.0000    0.0000 C    0  0  0  0  0  0  0  0  0  0  0  0
    0.1340    2.5000    0.0000 I    0  0  0  0  0  0  0  0  0  0  0  0
    4.0000    2.7321    0.0000 C    0  0  0  0  0  0  0  0  0  0  0  0
    5.0000    2.7321    0.0000 C    0  0  0  0  0  0  0  0  0  0  0  0
  1  2  1  0  0  0  0
  2 26  2  0  0  0  0
  2  3  1  0  0  0  0
  3  4  2  0  0  0  0
  4  5  1  0  0  0  0
  5  6  1  0  0  0  0
  5 25  2  0  0  0  0
  6  7  2  0  0  0  0
  7  8  1  0  0  0  0
  8  9  1  0  0  0  0
  8 17  1  0  0  0  0
  8 23  1  0  0  0  0
  9 10  1  0  0  0  0
  9 13  1  0  0  0  0
  9 16  2  0  0  0  0
 10 11  1  0  0  0  0
 11 12  1  0  0  0  0
 13 14  1  0  0  0  0
 14 15  1  0  0  0  0
 17 22  2  0  0  0  0
 17 18  1  0  0  0  0
 18 19  2  0  0  0  0
 19 20  1  0  0  0  0
 20 21  2  0  0  0  0
 21 22  1  0  0  0  0
 23 24  1  0  0  0  0
 25 26  1  0  0  0  0
M  END
> <NMREDATA_VERSION>
1.1

> <NMREDATA_LEVEL>
0

> <NMREDATA_SOLVENT>
CDCl3

> <NMREDATA_FORMULA>
C19H22ClINO3P

> <NMREDATA_SMILES>
CCOP(=O)(C(c1ccccc1)(/N=C/c1ccc(cc1)Cl)CI)OCC

> <NMREDATA_ASSIGNMENT>
P9, 13.63, 9

> <NMREDATA_1D_31P>
Larmor=203
13.63, L=P9

$$$$
