
 OpenBabel06112616442D

 31 34  0  0  0  0  0  0  0  0999 V2000
    5.0477   -4.8571    0.0000 C   0  0  0  0  0  0  0  0  0  0  0  0
    5.0477   -3.8857    0.0000 O   0  0  0  0  0  0  0  0  0  0  0  0
    4.2064   -5.3429    0.0000 C   0  0  0  0  0  0  0  0  0  0  0  0
    3.3651   -4.8571    0.0000 C   0  0  0  0  0  0  0  0  0  0  0  0
    3.3651   -3.8857    0.0000 C   0  0  0  0  0  0  0  0  0  0  0  0
    4.2064   -3.4000    0.0000 C   0  0  0  0  0  0  0  0  0  0  0  0
    4.2064   -2.4286    0.0000 C   0  0  0  0  0  0  0  0  0  0  0  0
    3.3651   -1.9429    0.0000 C   0  0  0  0  0  0  0  0  0  0  0  0
    2.5238   -2.4286    0.0000 C   0  0  0  0  0  0  0  0  0  0  0  0
    2.5238   -3.4000    0.0000 C   0  0  0  0  0  0  0  0  0  0  0  0
    1.6826   -3.8857    0.0000 C   0  0  0  0  0  0  0  0  0  0  0  0
    1.6826   -4.8571    0.0000 C   0  0  0  0  0  0  0  0  0  0  0  0
    0.8413   -5.3429    0.0000 C   0  0  0  0  0  0  0  0  0  0  0  0
    0.0000   -4.8571    0.0000 C   0  0  0  0  0  0  0  0  0  0  0  0
    0.0000   -3.8857    0.0000 C   0  0  0  0  0  0  0  0  0  0  0  0
    0.8413   -3.4000    0.0000 C   0  0  0  0  0  0  0  0  0  0  0  0
    0.8413   -1.4571    0.0000 P   0  0  0  0  0  0  0  0  0  0  0  0
    1.6826   -0.9714    0.0000 C   0  0  0  0  0  0  0  0  0  0  0  0
    1.6826    0.0000    0.0000 C   0  0  0  0  0  0  0  0  0  0  0  0
    2.5238    0.4857    0.0000 C   0  0  0  0  0  0  0  0  0  0  0  0
    3.3651    0.0000    0.0000 C   0  0  0  0  0  0  0  0  0  0  0  0
    3.3651   -0.9714    0.0000 C   0  0  0  0  0  0  0  0  0  0  0  0
    2.5238   -1.4571    0.0000 C   0  0  0  0  0  0  0  0  0  0  0  0
    0.0000   -0.9714    0.0000 C   0  0  0  0  0  0  0  0  0  0  0  0
   -0.8413   -1.4571    0.0000 C   0  0  0  0  0  0  0  0  0  0  0  0
   -1.6826   -0.9714    0.0000 C   0  0  0  0  0  0  0  0  0  0  0  0
   -1.6826    0.0000    0.0000 C   0  0  0  0  0  0  0  0  0  0  0  0
   -0.8413    0.4857    0.0000 C   0  0  0  0  0  0  0  0  0  0  0  0
    0.0000    0.0000    0.0000 C   0  0  0  0  0  0  0  0  0  0  0  0
    5.8890   -5.3429    0.0000 O   0  0  0  0  0  0  0  0  0  0  0  0
    5.8890   -6.3143    0.0000 C   0  0  0  0  0  0  0  0  0  0  0  0
  1  2  2  0  0  0  0
  1  3  1  0  0  0  0
  1 30  1  0  0  0  0
  3  4  1  0  0  0  0
  4  5  1  0  0  0  0
  5 10  2  0  0  0  0
  5  6  1  0  0  0  0
  6  7  2  0  0  0  0
  7  8  1  0  0  0  0
  8  9  2  0  0  0  0
  9 10  1  0  0  0  0
 10 11  1  0  0  0  0
 11 16  2  0  0  0  0
 11 12  1  0  0  0  0
 12 13  2  0  0  0  0
 13 14  1  0  0  0  0
 14 15  2  0  0  0  0
 15 16  1  0  0  0  0
 16 17  1  0  0  0  0
 17 18  1  0  0  0  0
 17 24  1  0  0  0  0
 18 23  2  0  0  0  0
 18 19  1  0  0  0  0
 19 20  2  0  0  0  0
 20 21  1  0  0  0  0
 21 22  2  0  0  0  0
 22 23  1  0  0  0  0
 24 29  2  0  0  0  0
 24 25  1  0  0  0  0
 25 26  2  0  0  0  0
 26 27  1  0  0  0  0
 27 28  2  0  0  0  0
 28 29  1  0  0  0  0
 30 31  1  0  0  0  0
M  END
> <NMREDATA_VERSION>
1.1

> <NMREDATA_LEVEL>
0

> <NMREDATA_SOLVENT>
CDCl3

> <NMREDATA_FORMULA>
C28H25O2P

> <NMREDATA_SMILES>
COC(=O)CCc1ccccc1c1ccccc1P(c1ccccc1)c1ccccc1

> <NMREDATA_ASSIGNMENT>
P17, -13.90, 17

> <NMREDATA_1D_31P>
Larmor=162
-13.90, L=P17

$$$$
