
 OpenBabel06112616452D

 32 37  0  0  0  0  0  0  0  0999 V2000
   -0.7932   -1.3478    0.0000 O    0  0  0  0  0  0  0  0  0  0  0  0
    0.0000   -0.8866    0.0000 C    0  0  0  0  0  0  0  0  0  0  0  0
    0.7793   -1.3301    0.0000 C    0  0  0  0  0  0  0  0  0  0  0  0
    0.7855   -2.2065    0.0000 C    0  0  0  0  0  0  0  0  0  0  0  0
    1.5476   -2.6394    0.0000 C    0  0  0  0  0  0  0  0  0  0  0  0
    2.3035   -2.1958    0.0000 C    0  0  0  0  0  0  0  0  0  0  0  0
    2.2973   -1.3194    0.0000 C    0  0  0  0  0  0  0  0  0  0  0  0
    1.5352   -0.8866    0.0000 C    0  0  0  0  0  0  0  0  0  0  0  0
    1.5352    0.0000    0.0000 P    0  0  0  0  0  0  0  0  0  0  0  0
    3.3084    0.0000    0.0000 C    0  0  0  0  0  0  0  0  0  0  0  0
    3.5823    0.8432    0.0000 C    0  0  0  0  0  0  0  0  0  0  0  0
    4.4495    1.0275    0.0000 C    0  0  0  0  0  0  0  0  0  0  0  0
    5.0427    0.3687    0.0000 C    0  0  0  0  0  0  0  0  0  0  0  0
    5.9099    0.5530    0.0000 Cl   0  0  0  0  0  0  0  0  0  0  0  0
    4.7688   -0.4745    0.0000 C    0  0  0  0  0  0  0  0  0  0  0  0
    3.9016   -0.6588    0.0000 C    0  0  0  0  0  0  0  0  0  0  0  0
    4.9606   -0.9178    0.0000 C    0  0  0  0  0  0  0  0  0  0  0  0
    5.2783   -1.7455    0.0000 C    0  0  0  0  0  0  0  0  0  0  0  0
    6.1540   -1.8842    0.0000 C    0  0  0  0  0  0  0  0  0  0  0  0
    6.7119   -1.1952    0.0000 C    0  0  0  0  0  0  0  0  0  0  0  0
    7.5876   -1.3339    0.0000 Cl   0  0  0  0  0  0  0  0  0  0  0  0
    6.3942   -0.3675    0.0000 C    0  0  0  0  0  0  0  0  0  0  0  0
    5.5186   -0.2288    0.0000 C    0  0  0  0  0  0  0  0  0  0  0  0
    1.5352    0.8868    0.0000 O    0  0  0  0  0  0  0  0  0  0  0  0
    0.7559    1.3304    0.0000 C    0  0  0  0  0  0  0  0  0  0  0  0
    0.7498    2.2068    0.0000 C    0  0  0  0  0  0  0  0  0  0  0  0
   -0.0123    2.6396    0.0000 C    0  0  0  0  0  0  0  0  0  0  0  0
   -0.7682    2.1961    0.0000 C    0  0  0  0  0  0  0  0  0  0  0  0
   -1.6018    2.6696    0.0000 I    0  0  0  0  0  0  0  0  0  0  0  0
   -0.7621    1.3197    0.0000 C    0  0  0  0  0  0  0  0  0  0  0  0
    0.0000    0.8868    0.0000 C    0  0  0  0  0  0  0  0  0  0  0  0
    0.0000    0.0000    0.0000 N    0  0  0  0  0  0  0  0  0  0  0  0
  1  2  2  0  0  0  0
  2 32  1  0  0  0  0
  2  3  1  0  0  0  0
  3  8  2  0  0  0  0
  3  4  1  0  0  0  0
  4  5  2  0  0  0  0
  5  6  1  0  0  0  0
  6  7  2  0  0  0  0
  7  8  1  0  0  0  0
  8  9  1  0  0  0  0
  9 32  1  0  0  0  0
  9 10  1  0  0  0  0
  9 17  1  0  0  0  0
  9 24  1  0  0  0  0
 10 16  2  0  0  0  0
 10 11  1  0  0  0  0
 11 12  2  0  0  0  0
 12 13  1  0  0  0  0
 13 14  1  0  0  0  0
 13 15  2  0  0  0  0
 15 16  1  0  0  0  0
 17 23  2  0  0  0  0
 17 18  1  0  0  0  0
 18 19  2  0  0  0  0
 19 20  1  0  0  0  0
 20 21  1  0  0  0  0
 20 22  2  0  0  0  0
 22 23  1  0  0  0  0
 24 25  1  0  0  0  0
 25 31  2  0  0  0  0
 25 26  1  0  0  0  0
 26 27  2  0  0  0  0
 27 28  1  0  0  0  0
 28 29  1  0  0  0  0
 28 30  2  0  0  0  0
 30 31  1  0  0  0  0
 31 32  1  0  0  0  0
M  END
> <NMREDATA_VERSION>
1.1

> <NMREDATA_LEVEL>
0

> <NMREDATA_SOLVENT>
CDCl3

> <NMREDATA_FORMULA>
C25H15Cl2INO2P

> <NMREDATA_SMILES>
Clc1ccc(cc1)P12(Oc3c(N2C(=O)c2c1cccc2)cc(cc3)I)c1ccc(cc1)Cl

> <NMREDATA_ASSIGNMENT>
P9, -49.40, 9

> <NMREDATA_1D_31P>
Larmor=162
-49.40, L=P9

$$$$
