
 OpenBabel06112616432D

 38 42  0  0  1  0  0  0  0  0999 V2000
    2.4419   -1.8226    0.0000 N   0  0  0  0  0  0  0  0  0  0  0  0
    1.9535   -0.9767    0.0000 C   0  0  3  0  0  0  0  0  0  0  0  0
    2.4419   -0.1309    0.0000 C   0  0  0  0  0  0  0  0  0  0  0  0
    1.9535    0.7150    0.0000 C   0  0  0  0  0  0  0  0  0  0  0  0
    2.4419    1.5609    0.0000 C   0  0  0  0  0  0  0  0  0  0  0  0
    3.4186    1.5609    0.0000 C   0  0  0  0  0  0  0  0  0  0  0  0
    3.9070    0.7150    0.0000 C   0  0  0  0  0  0  0  0  0  0  0  0
    3.4186   -0.1309    0.0000 C   0  0  0  0  0  0  0  0  0  0  0  0
    0.0000   -0.9767    0.0000 P   0  0  0  0  0  0  0  0  0  0  0  0
    0.0000   -1.9535    0.0000 O   0  0  0  0  0  0  0  0  0  0  0  0
   -0.9767   -0.9767    0.0000 C   0  0  0  0  0  0  0  0  0  0  0  0
   -1.4651   -0.1309    0.0000 C   0  0  0  0  0  0  0  0  0  0  0  0
   -2.4419   -0.1309    0.0000 C   0  0  0  0  0  0  0  0  0  0  0  0
   -2.9302    0.7150    0.0000 C   0  0  0  0  0  0  0  0  0  0  0  0
   -2.9302   -0.9767    0.0000 C   0  0  0  0  0  0  0  0  0  0  0  0
   -2.4419   -1.8226    0.0000 C   0  0  0  0  0  0  0  0  0  0  0  0
   -2.9302   -2.6685    0.0000 C   0  0  0  0  0  0  0  0  0  0  0  0
   -1.4651   -1.8226    0.0000 C   0  0  0  0  0  0  0  0  0  0  0  0
    0.0000    0.0000    0.0000 C   0  0  0  0  0  0  0  0  0  0  0  0
    0.8459    0.4884    0.0000 C   0  0  0  0  0  0  0  0  0  0  0  0
    0.8459    1.4651    0.0000 C   0  0  0  0  0  0  0  0  0  0  0  0
    1.6918    1.9535    0.0000 C   0  0  0  0  0  0  0  0  0  0  0  0
    0.0000    1.9535    0.0000 C   0  0  0  0  0  0  0  0  0  0  0  0
   -0.8459    1.4651    0.0000 C   0  0  0  0  0  0  0  0  0  0  0  0
   -1.6918    1.9535    0.0000 C   0  0  0  0  0  0  0  0  0  0  0  0
   -0.8459    0.4884    0.0000 C   0  0  0  0  0  0  0  0  0  0  0  0
    1.9535   -2.6685    0.0000 C   0  0  0  0  0  0  0  0  0  0  0  0
    2.4419   -3.5144    0.0000 C   0  0  0  0  0  0  0  0  0  0  0  0
    1.9535   -4.3603    0.0000 C   0  0  0  0  0  0  0  0  0  0  0  0
    0.9767   -4.3603    0.0000 C   0  0  0  0  0  0  0  0  0  0  0  0
    0.4884   -3.5144    0.0000 C   0  0  0  0  0  0  0  0  0  0  0  0
    0.9767   -2.6685    0.0000 C   0  0  0  0  0  0  0  0  0  0  0  0
    3.4186   -1.8226    0.0000 C   0  0  0  0  0  0  0  0  0  0  0  0
    3.9070   -0.9767    0.0000 C   0  0  0  0  0  0  0  0  0  0  0  0
    4.8837   -0.9767    0.0000 C   0  0  0  0  0  0  0  0  0  0  0  0
    5.3721   -1.8226    0.0000 C   0  0  0  0  0  0  0  0  0  0  0  0
    4.8837   -2.6685    0.0000 C   0  0  0  0  0  0  0  0  0  0  0  0
    3.9070   -2.6685    0.0000 C   0  0  0  0  0  0  0  0  0  0  0  0
  1  2  1  0  0  0  0
  1 27  1  0  0  0  0
  1 33  1  0  0  0  0
  2  3  1  0  0  0  0
  2  9  1  0  0  0  0
  3  8  1  0  0  0  0
  3  4  2  0  0  0  0
  4  5  1  0  0  0  0
  5  6  2  0  0  0  0
  6  7  1  0  0  0  0
  7  8  2  0  0  0  0
  9 10  2  0  0  0  0
  9 11  1  0  0  0  0
  9 19  1  0  0  0  0
 11 18  1  0  0  0  0
 11 12  2  0  0  0  0
 12 13  1  0  0  0  0
 13 14  1  0  0  0  0
 13 15  2  0  0  0  0
 15 16  1  0  0  0  0
 16 17  1  0  0  0  0
 16 18  2  0  0  0  0
 19 26  1  0  0  0  0
 19 20  2  0  0  0  0
 20 21  1  0  0  0  0
 21 22  1  0  0  0  0
 21 23  2  0  0  0  0
 23 24  1  0  0  0  0
 24 25  1  0  0  0  0
 24 26  2  0  0  0  0
 27 32  1  0  0  0  0
 27 28  2  0  0  0  0
 28 29  1  0  0  0  0
 29 30  2  0  0  0  0
 30 31  1  0  0  0  0
 31 32  2  0  0  0  0
 33 38  1  0  0  0  0
 33 34  2  0  0  0  0
 34 35  1  0  0  0  0
 35 36  2  0  0  0  0
 36 37  1  0  0  0  0
 37 38  2  0  0  0  0
M  END
> <NMREDATA_VERSION>
1.1

> <NMREDATA_LEVEL>
0

> <NMREDATA_SOLVENT>
CDCl3

> <NMREDATA_FORMULA>
C35H34NOP

> <NMREDATA_SMILES>
Cc1cc(C)cc(c1)P(=O)(C(N(c1ccccc1)c1ccccc1)c1ccccc1)c1cc(C)cc(c1)C

> <NMREDATA_ASSIGNMENT>
P9, 30.53, 9

> <NMREDATA_1D_31P>
Larmor=162
30.53, L=P9

$$$$
