
 OpenBabel06112616442D

 35 40  0  0  1  0  0  0  0  0999 V2000
    0.8056   -1.3953    0.0000 P   0  0  0  0  0  0  0  0  0  0  0  0
    0.0000   -1.8605    0.0000 C   0  0  0  0  0  0  0  0  0  0  0  0
    0.0000   -2.7907    0.0000 C   0  0  0  0  0  0  0  0  0  0  0  0
   -0.8056   -3.2558    0.0000 C   0  0  0  0  0  0  0  0  0  0  0  0
   -1.6112   -2.7907    0.0000 C   0  0  0  0  0  0  0  0  0  0  0  0
   -1.6112   -1.8605    0.0000 C   0  0  0  0  0  0  0  0  0  0  0  0
   -0.8056   -1.3953    0.0000 C   0  0  0  0  0  0  0  0  0  0  0  0
    4.0280   -3.2558    0.0000 C   0  0  0  0  0  0  0  0  0  0  0  0
    4.8336   -2.7907    0.0000 C   0  0  0  0  0  0  0  0  0  0  0  0
    5.6392   -3.2558    0.0000 C   0  0  0  0  0  0  0  0  0  0  0  0
    5.6392   -4.1860    0.0000 C   0  0  0  0  0  0  0  0  0  0  0  0
    4.8336   -4.6512    0.0000 C   0  0  0  0  0  0  0  0  0  0  0  0
    4.0280   -4.1860    0.0000 C   0  0  0  0  0  0  0  0  0  0  0  0
    0.8056   -0.4651    0.0000 C   0  0  0  0  0  0  0  0  0  0  0  0
    1.6112    0.0000    0.0000 C   0  0  0  0  0  0  0  0  0  0  0  0
    2.4959   -0.2875    0.0000 C   0  0  1  0  0  0  0  0  0  0  0  0
    1.9491   -1.0400    0.0000 C   0  0  0  0  0  0  0  0  0  0  0  0
    2.4959   -1.7926    0.0000 C   0  0  0  0  0  0  0  0  0  0  0  0
    2.1176   -2.6424    0.0000 C   0  0  0  0  0  0  0  0  0  0  0  0
    1.1924   -2.7397    0.0000 C   0  0  0  0  0  0  0  0  0  0  0  0
    0.6456   -1.9871    0.0000 C   0  0  0  0  0  0  0  0  0  0  0  0
    1.0240   -1.1373    0.0000 C   0  0  0  0  0  0  0  0  0  0  0  0
    0.4772   -0.3847    0.0000 O   0  0  0  0  0  0  0  0  0  0  0  0
    3.3806   -1.5051    0.0000 C   0  0  2  0  0  0  0  0  0  0  0  0
    4.1332   -2.0519    0.0000 C   0  0  0  0  0  0  0  0  0  0  0  0
    4.9830   -1.6736    0.0000 C   0  0  0  0  0  0  0  0  0  0  0  0
    3.3806   -0.5749    0.0000 O   0  0  0  0  0  0  0  0  0  0  0  0
    3.0427    0.4651    0.0000 O   0  0  0  0  0  0  0  0  0  0  0  0
    2.4959    1.2177    0.0000 C   0  0  1  0  0  0  0  0  0  0  0  0
    2.7834    2.1024    0.0000 C   0  0  0  0  0  0  0  0  0  0  0  0
    2.1609    2.7937    0.0000 C   0  0  0  0  0  0  0  0  0  0  0  0
    1.6112    0.9302    0.0000 C   0  0  0  0  0  0  0  0  0  0  0  0
    0.8056    1.3953    0.0000 C   0  0  0  0  0  0  0  0  0  0  0  0
    0.0000    0.9302    0.0000 C   0  0  0  0  0  0  0  0  0  0  0  0
    0.0000    0.0000    0.0000 C   0  0  0  0  0  0  0  0  0  0  0  0
  1  2  1  0  0  0  0
  1  8  1  0  0  0  0
  1 14  1  0  0  0  0
  2  7  2  0  0  0  0
  2  3  1  0  0  0  0
  3  4  2  0  0  0  0
  4  5  1  0  0  0  0
  5  6  2  0  0  0  0
  6  7  1  0  0  0  0
  8 13  2  0  0  0  0
  8  9  1  0  0  0  0
  9 10  2  0  0  0  0
 10 11  1  0  0  0  0
 11 12  2  0  0  0  0
 12 13  1  0  0  0  0
 14 35  2  0  0  0  0
 14 15  1  0  0  0  0
 15 32  2  0  0  0  0
 16 15  1  6  0  0  0
 16 27  1  0  0  0  0
 16 17  1  0  0  0  0
 16 28  1  0  0  0  0
 17 22  2  0  0  0  0
 17 18  1  0  0  0  0
 18 19  2  0  0  0  0
 18 24  1  0  0  0  0
 19 20  1  0  0  0  0
 20 21  2  0  0  0  0
 21 22  1  0  0  0  0
 22 23  1  0  0  0  0
 24 25  1  1  0  0  0
 24 27  1  0  0  0  0
 25 26  1  0  0  0  0
 28 29  1  0  0  0  0
 29 30  1  6  0  0  0
 29 32  1  0  0  0  0
 30 31  1  0  0  0  0
 32 33  1  0  0  0  0
 33 34  2  0  0  0  0
 34 35  1  0  0  0  0
M  END
> <NMREDATA_VERSION>
1.1

> <NMREDATA_LEVEL>
0

> <NMREDATA_SOLVENT>
CDCl3

> <NMREDATA_FORMULA>
C31H29O3P

> <NMREDATA_SMILES>
CC[C@@H]1O[C@@]2(c3c1cccc3P(c1ccccc1)c1ccccc1)O[C@H](c1c2c(O)ccc1)CC

> <NMREDATA_ASSIGNMENT>
P1, -23.06, 1

> <NMREDATA_1D_31P>
Larmor=162
-23.06, L=P1

$$$$
