
 OpenBabel06112616482D

 61 69  0  0  0  0  0  0  0  0999 V2000
    9.1102   -1.7055    0.0000 C    0  0  0  0  0  0  0  0  0  0  0  0
    8.3349   -1.1422    0.0000 N    0  0  0  0  0  0  0  0  0  0  0  0
    7.4594   -1.5320    0.0000 C    0  0  0  0  0  0  0  0  0  0  0  0
    8.4350   -0.1891    0.0000 C    0  0  0  0  0  0  0  0  0  0  0  0
    7.6597    0.3741    0.0000 C    0  0  0  0  0  0  0  0  0  0  0  0
    7.7599    1.3272    0.0000 C    0  0  0  0  0  0  0  0  0  0  0  0
    8.6354    1.7170    0.0000 C    0  0  0  0  0  0  0  0  0  0  0  0
    9.4107    1.1537    0.0000 C    0  0  0  0  0  0  0  0  0  0  0  0
    9.3105    0.2006    0.0000 C    0  0  0  0  0  0  0  0  0  0  0  0
   10.2862    1.5435    0.0000 Si   0  0  0  0  0  0  0  0  0  0  0  0
   11.2393    1.4433    0.0000 C    0  0  0  0  0  0  0  0  0  0  0  0
   10.6760    0.6680    0.0000 C    0  0  0  0  0  0  0  0  0  0  0  0
   10.3864    2.4966    0.0000 C    0  0  0  0  0  0  0  0  0  0  0  0
   11.2618    2.8864    0.0000 C    0  0  0  0  0  0  0  0  0  0  0  0
   11.3620    3.8395    0.0000 C    0  0  0  0  0  0  0  0  0  0  0  0
   12.2375    4.2293    0.0000 N    0  0  0  0  0  0  0  0  0  0  0  0
   12.3377    5.1823    0.0000 C    0  0  0  0  0  0  0  0  0  0  0  0
   13.0128    3.6660    0.0000 C    0  0  0  0  0  0  0  0  0  0  0  0
   10.5867    4.4028    0.0000 C    0  0  0  0  0  0  0  0  0  0  0  0
    9.7112    4.0130    0.0000 C    0  0  0  0  0  0  0  0  0  0  0  0
    9.6110    3.0599    0.0000 C    0  0  0  0  0  0  0  0  0  0  0  0
    8.7356    2.6701    0.0000 C    0  0  0  0  0  0  0  0  0  0  0  0
    8.7356    3.6284    0.0000 C    0  0  0  0  0  0  0  0  0  0  0  0
   11.8368    5.8816    0.0000 N    0  3  0  0  0  0  0  0  0  0  0  0
   12.6121    6.4449    0.0000 N    0  5  0  0  0  0  0  0  0  0  0  0
    7.8241    3.9246    0.0000 C    0  0  0  0  0  0  0  0  0  0  0  0
    7.5280    4.8360    0.0000 O    0  0  0  0  0  0  0  0  0  0  0  0
    7.2608    3.1493    0.0000 C    0  0  0  0  0  0  0  0  0  0  0  0
    6.3078    3.0491    0.0000 C    0  0  0  0  0  0  0  0  0  0  0  0
    5.9180    2.1736    0.0000 C    0  0  0  0  0  0  0  0  0  0  0  0
    4.9649    2.0734    0.0000 C    0  0  0  0  0  0  0  0  0  0  0  0
    4.3236    2.7856    0.0000 C    0  0  0  0  0  0  0  0  0  0  0  0
    3.4482    2.3958    0.0000 N    0  0  0  0  0  0  0  0  0  0  0  0
    2.6182    2.8750    0.0000 C    0  0  0  0  0  0  0  0  0  0  0  0
    1.7883    2.3958    0.0000 C    0  0  0  0  0  0  0  0  0  0  0  0
    1.7883    1.4375    0.0000 C    0  0  0  0  0  0  0  0  0  0  0  0
    0.9583    0.9583    0.0000 C    0  0  0  0  0  0  0  0  0  0  0  0
    0.9583    0.0000    0.0000 P    0  3  0  0  0  0  0  0  0  0  0  0
    1.9167    0.0000    0.0000 C    0  0  0  0  0  0  0  0  0  0  0  0
    2.3958   -0.8299    0.0000 C    0  0  0  0  0  0  0  0  0  0  0  0
    3.3542   -0.8299    0.0000 C    0  0  0  0  0  0  0  0  0  0  0  0
    3.8333    0.0000    0.0000 C    0  0  0  0  0  0  0  0  0  0  0  0
    3.3542    0.8299    0.0000 C    0  0  0  0  0  0  0  0  0  0  0  0
    2.3958    0.8299    0.0000 C    0  0  0  0  0  0  0  0  0  0  0  0
    0.9583   -0.9583    0.0000 C    0  0  0  0  0  0  0  0  0  0  0  0
    0.1284   -1.4375    0.0000 C    0  0  0  0  0  0  0  0  0  0  0  0
    0.1284   -2.3958    0.0000 C    0  0  0  0  0  0  0  0  0  0  0  0
    0.9583   -2.8750    0.0000 C    0  0  0  0  0  0  0  0  0  0  0  0
    1.7883   -2.3958    0.0000 C    0  0  0  0  0  0  0  0  0  0  0  0
    1.7883   -1.4375    0.0000 C    0  0  0  0  0  0  0  0  0  0  0  0
    0.0000    0.0000    0.0000 C    0  0  0  0  0  0  0  0  0  0  0  0
   -0.4792    0.8299    0.0000 C    0  0  0  0  0  0  0  0  0  0  0  0
   -1.4375    0.8299    0.0000 C    0  0  0  0  0  0  0  0  0  0  0  0
   -1.9167    0.0000    0.0000 C    0  0  0  0  0  0  0  0  0  0  0  0
   -1.4375   -0.8299    0.0000 C    0  0  0  0  0  0  0  0  0  0  0  0
   -0.4792   -0.8299    0.0000 C    0  0  0  0  0  0  0  0  0  0  0  0
    3.5483    1.4427    0.0000 N    0  0  0  0  0  0  0  0  0  0  0  0
    4.4857    1.2435    0.0000 N    0  0  0  0  0  0  0  0  0  0  0  0
    6.4813    1.3983    0.0000 C    0  0  0  0  0  0  0  0  0  0  0  0
    7.4343    1.4985    0.0000 C    0  0  0  0  0  0  0  0  0  0  0  0
    7.8241    2.3740    0.0000 C    0  0  0  0  0  0  0  0  0  0  0  0
  1  2  1  0  0  0  0
  2  3  1  0  0  0  0
  2  4  1  0  0  0  0
  4  9  2  0  0  0  0
  4  5  1  0  0  0  0
  5  6  2  0  0  0  0
  6  7  1  0  0  0  0
  7 22  1  0  0  0  0
  7  8  2  0  0  0  0
  8  9  1  0  0  0  0
  8 10  1  0  0  0  0
 10 11  1  0  0  0  0
 10 12  1  0  0  0  0
 10 13  1  0  0  0  0
 13 21  2  0  0  0  0
 13 14  1  0  0  0  0
 14 15  2  0  0  0  0
 15 16  1  0  0  0  0
 15 19  1  0  0  0  0
 16 17  1  0  0  0  0
 16 18  1  0  0  0  0
 19 20  2  0  0  0  0
 20 21  1  0  0  0  0
 21 22  1  0  0  0  0
 22 61  1  0  0  0  0
 22 23  1  0  0  0  0
 23 24  2  0  0  0  0
 23 26  1  0  0  0  0
 24 25  2  0  0  0  0
 26 27  2  0  0  0  0
 26 28  1  0  0  0  0
 28 61  2  0  0  0  0
 28 29  1  0  0  0  0
 29 30  2  0  0  0  0
 30 31  1  0  0  0  0
 30 59  1  0  0  0  0
 31 58  1  0  0  0  0
 31 32  2  0  0  0  0
 32 33  1  0  0  0  0
 33 34  1  0  0  0  0
 33 57  1  0  0  0  0
 34 35  1  0  0  0  0
 35 36  1  0  0  0  0
 36 37  1  0  0  0  0
 37 38  1  0  0  0  0
 38 39  1  0  0  0  0
 38 45  1  0  0  0  0
 38 51  1  0  0  0  0
 39 44  2  0  0  0  0
 39 40  1  0  0  0  0
 40 41  2  0  0  0  0
 41 42  1  0  0  0  0
 42 43  2  0  0  0  0
 43 44  1  0  0  0  0
 45 50  2  0  0  0  0
 45 46  1  0  0  0  0
 46 47  2  0  0  0  0
 47 48  1  0  0  0  0
 48 49  2  0  0  0  0
 49 50  1  0  0  0  0
 51 56  2  0  0  0  0
 51 52  1  0  0  0  0
 52 53  2  0  0  0  0
 53 54  1  0  0  0  0
 54 55  2  0  0  0  0
 55 56  1  0  0  0  0
 57 58  2  0  0  0  0
 59 60  2  0  0  0  0
 60 61  1  0  0  0  0
M  END
> <NMREDATA_VERSION>
1.1

> <NMREDATA_LEVEL>
0

> <NMREDATA_SOLVENT>
CDCl3

> <NMREDATA_FORMULA>
C51H51N7OPSi

> <NMREDATA_SMILES>
N=N=C1C(=O)c2c(C31c1ccc(cc1[Si](c1c3ccc(c1)N(C)C)(C)C)N(C)C)ccc(c2)c1nnn(c1)CCCCP(c1ccccc1)(c1ccccc1)c1ccccc1

> <NMREDATA_ASSIGNMENT>
P38, 24.50, 38

> <NMREDATA_1D_31P>
Larmor=202
24.50, L=P38

$$$$
