
 OpenBabel06112616482D

 29 30  0  0  0  0  0  0  0  0999 V2000
    0.9677   -0.9677    0.0000 C    0  0  0  0  0  0  0  0  0  0  0  0
    0.9677    0.0000    0.0000 Si   0  0  0  0  0  0  0  0  0  0  0  0
    1.9355    0.0000    0.0000 C    0  0  0  0  0  0  0  0  0  0  0  0
    0.9677    0.9677    0.0000 C    0  0  0  0  0  0  0  0  0  0  0  0
    0.0000    0.0000    0.0000 C    0  0  0  0  0  0  0  0  0  0  0  0
   -0.4839   -0.8381    0.0000 C    0  0  0  0  0  0  0  0  0  0  0  0
    0.0000   -1.6762    0.0000 P    0  0  3  0  0  0  0  0  0  0  0  0
   -0.8381   -2.1600    0.0000 C    0  0  0  0  0  0  0  0  0  0  0  0
   -2.5143   -1.1923    0.0000 C    0  0  0  0  0  0  0  0  0  0  0  0
   -3.3524   -1.6762    0.0000 Si   0  0  0  0  0  0  0  0  0  0  0  0
   -3.8362   -0.8381    0.0000 C    0  0  0  0  0  0  0  0  0  0  0  0
   -4.1904   -2.1600    0.0000 C    0  0  0  0  0  0  0  0  0  0  0  0
   -2.8685   -2.5143    0.0000 C    0  0  0  0  0  0  0  0  0  0  0  0
   -0.8381   -3.1278    0.0000 C    0  0  0  0  0  0  0  0  0  0  0  0
   -1.6762   -3.6117    0.0000 Si   0  0  0  0  0  0  0  0  0  0  0  0
   -2.1600   -2.7736    0.0000 C    0  0  0  0  0  0  0  0  0  0  0  0
   -2.5143   -4.0955    0.0000 C    0  0  0  0  0  0  0  0  0  0  0  0
   -1.1923   -4.4498    0.0000 C    0  0  0  0  0  0  0  0  0  0  0  0
    0.4839   -2.5143    0.0000 C    0  0  0  0  0  0  0  0  0  0  0  0
    1.4516   -2.5143    0.0000 C    0  0  0  0  0  0  0  0  0  0  0  0
    1.9355   -3.3524    0.0000 C    0  0  0  0  0  0  0  0  0  0  0  0
    1.4516   -4.1904    0.0000 C    0  0  0  0  0  0  0  0  0  0  0  0
    0.4839   -4.1904    0.0000 C    0  0  0  0  0  0  0  0  0  0  0  0
    0.0000   -3.3524    0.0000 C    0  0  0  0  0  0  0  0  0  0  0  0
    0.8381   -1.1923    0.0000 O    0  0  0  0  0  0  0  0  0  0  0  0
   -1.4516   -0.8381    0.0000 C    0  0  0  0  0  0  0  0  0  0  0  0
   -1.9355    0.0000    0.0000 C    0  0  0  0  0  0  0  0  0  0  0  0
   -1.4516    0.8381    0.0000 C    0  0  0  0  0  0  0  0  0  0  0  0
   -0.4839    0.8381    0.0000 C    0  0  0  0  0  0  0  0  0  0  0  0
  1  2  1  0  0  0  0
  2  3  1  0  0  0  0
  2  4  1  0  0  0  0
  2  5  1  0  0  0  0
  5 29  2  0  0  0  0
  5  6  1  0  0  0  0
  6  7  1  0  0  0  0
  6 26  2  0  0  0  0
  7  8  1  0  0  0  0
  7 19  1  0  0  0  0
  7 25  2  0  0  0  0
  8  9  1  0  0  0  0
  8 14  1  0  0  0  0
  9 10  1  0  0  0  0
 10 11  1  0  0  0  0
 10 12  1  0  0  0  0
 10 13  1  0  0  0  0
 14 15  1  0  0  0  0
 15 16  1  0  0  0  0
 15 17  1  0  0  0  0
 15 18  1  0  0  0  0
 19 24  2  0  0  0  0
 19 20  1  0  0  0  0
 20 21  2  0  0  0  0
 21 22  1  0  0  0  0
 22 23  2  0  0  0  0
 23 24  1  0  0  0  0
 26 27  1  0  0  0  0
 27 28  2  0  0  0  0
 28 29  1  0  0  0  0
M  END
> <NMREDATA_VERSION>
1.1

> <NMREDATA_LEVEL>
0

> <NMREDATA_FORMULA>
C24H41OPSi3

> <NMREDATA_SMILES>
C[Si](CC(P(=O)(c1ccccc1[Si](C)(C)C)c1ccccc1)C[Si](C)(C)C)(C)C

> <NMREDATA_ASSIGNMENT>
P7, 40.00, 7

> <NMREDATA_1D_31P>
Larmor=162
40.00, L=P7

$$$$
