
 OpenBabel06112616432D

 37 42  0  0  0  0  0  0  0  0999 V2000
    1.9535    0.7150    0.0000 O   0  0  0  0  0  0  0  0  0  0  0  0
    2.9302    0.7150    0.0000 C   0  0  0  0  0  0  0  0  0  0  0  0
    3.4186    1.5609    0.0000 C   0  0  0  0  0  0  0  0  0  0  0  0
    4.3953    1.5609    0.0000 C   0  0  0  0  0  0  0  0  0  0  0  0
    4.8837    0.7150    0.0000 C   0  0  0  0  0  0  0  0  0  0  0  0
    5.8605    0.7150    0.0000 C   0  0  0  0  0  0  0  0  0  0  0  0
    6.3488   -0.1309    0.0000 C   0  0  0  0  0  0  0  0  0  0  0  0
    5.8605   -0.9767    0.0000 C   0  0  0  0  0  0  0  0  0  0  0  0
    4.8837   -0.9767    0.0000 C   0  0  0  0  0  0  0  0  0  0  0  0
    4.3953   -0.1309    0.0000 C   0  0  0  0  0  0  0  0  0  0  0  0
    3.4186   -0.1309    0.0000 C   0  0  0  0  0  0  0  0  0  0  0  0
    2.4419   -1.8226    0.0000 C   0  0  0  0  0  0  0  0  0  0  0  0
    1.4651   -1.8226    0.0000 C   0  0  0  0  0  0  0  0  0  0  0  0
    0.9767   -0.9767    0.0000 O   0  0  0  0  0  0  0  0  0  0  0  0
    0.0000   -0.9767    0.0000 P   0  0  0  0  0  0  0  0  0  0  0  0
    0.0000   -1.9535    0.0000 O   0  0  0  0  0  0  0  0  0  0  0  0
   -0.9767   -0.9767    0.0000 C   0  0  0  0  0  0  0  0  0  0  0  0
   -1.4651   -0.1309    0.0000 C   0  0  0  0  0  0  0  0  0  0  0  0
   -2.4419   -0.1309    0.0000 C   0  0  0  0  0  0  0  0  0  0  0  0
   -2.9302   -0.9767    0.0000 C   0  0  0  0  0  0  0  0  0  0  0  0
   -2.4419   -1.8226    0.0000 C   0  0  0  0  0  0  0  0  0  0  0  0
   -1.4651   -1.8226    0.0000 C   0  0  0  0  0  0  0  0  0  0  0  0
    0.0000    0.0000    0.0000 C   0  0  0  0  0  0  0  0  0  0  0  0
    0.8459    0.4884    0.0000 C   0  0  0  0  0  0  0  0  0  0  0  0
    0.8459    1.4651    0.0000 C   0  0  0  0  0  0  0  0  0  0  0  0
    0.0000    1.9535    0.0000 C   0  0  0  0  0  0  0  0  0  0  0  0
   -0.8459    1.4651    0.0000 C   0  0  0  0  0  0  0  0  0  0  0  0
   -0.8459    0.4884    0.0000 C   0  0  0  0  0  0  0  0  0  0  0  0
    0.9767   -2.6685    0.0000 C   0  0  0  0  0  0  0  0  0  0  0  0
    1.4651   -3.5144    0.0000 C   0  0  0  0  0  0  0  0  0  0  0  0
    2.4419   -3.5144    0.0000 C   0  0  0  0  0  0  0  0  0  0  0  0
    2.9302   -4.3603    0.0000 C   0  0  0  0  0  0  0  0  0  0  0  0
    3.9070   -4.3603    0.0000 C   0  0  0  0  0  0  0  0  0  0  0  0
    4.3953   -3.5144    0.0000 C   0  0  0  0  0  0  0  0  0  0  0  0
    3.9070   -2.6685    0.0000 C   0  0  0  0  0  0  0  0  0  0  0  0
    2.9302   -2.6685    0.0000 C   0  0  0  0  0  0  0  0  0  0  0  0
    1.4651    1.5609    0.0000 C   0  0  0  0  0  0  0  0  0  0  0  0
  1  2  1  0  0  0  0
  1 37  1  0  0  0  0
  2 11  2  0  0  0  0
  2  3  1  0  0  0  0
  3  4  2  0  0  0  0
  4  5  1  0  0  0  0
  5 10  2  0  0  0  0
  5  6  1  0  0  0  0
  6  7  2  0  0  0  0
  7  8  1  0  0  0  0
  8  9  2  0  0  0  0
  9 10  1  0  0  0  0
 10 11  1  0  0  0  0
 11 12  1  0  0  0  0
 12 36  1  0  0  0  0
 12 13  2  0  0  0  0
 13 14  1  0  0  0  0
 13 29  1  0  0  0  0
 14 15  1  0  0  0  0
 15 16  2  0  0  0  0
 15 17  1  0  0  0  0
 15 23  1  0  0  0  0
 17 22  2  0  0  0  0
 17 18  1  0  0  0  0
 18 19  2  0  0  0  0
 19 20  1  0  0  0  0
 20 21  2  0  0  0  0
 21 22  1  0  0  0  0
 23 28  2  0  0  0  0
 23 24  1  0  0  0  0
 24 25  2  0  0  0  0
 25 26  1  0  0  0  0
 26 27  2  0  0  0  0
 27 28  1  0  0  0  0
 29 30  1  0  0  0  0
 30 31  1  0  0  0  0
 31 36  2  0  0  0  0
 31 32  1  0  0  0  0
 32 33  2  0  0  0  0
 33 34  1  0  0  0  0
 34 35  2  0  0  0  0
 35 36  1  0  0  0  0
M  END
> <NMREDATA_VERSION>
1.1

> <NMREDATA_LEVEL>
0

> <NMREDATA_SOLVENT>
CDCl3

> <NMREDATA_FORMULA>
C33H27O3P

> <NMREDATA_SMILES>
COc1ccc2c(c1C1=C(CCc3c1cccc3)OP(=O)(c1ccccc1)c1ccccc1)cccc2

> <NMREDATA_ASSIGNMENT>
P15, 28.01, 15

> <NMREDATA_1D_31P>
Larmor=162
28.01, L=P15

$$$$
