
 OpenBabel06112616432D

 32 36  0  0  0  0  0  0  0  0999 V2000
    5.0532   -1.6037    0.0000 C   0  0  0  0  0  0  0  0  0  0  0  0
    4.3461   -0.8966    0.0000 O   0  0  0  0  0  0  0  0  0  0  0  0
    3.3801   -1.1554    0.0000 C   0  0  0  0  0  0  0  0  0  0  0  0
    3.1213   -2.1213    0.0000 C   0  0  0  0  0  0  0  0  0  0  0  0
    2.1554   -2.3801    0.0000 C   0  0  0  0  0  0  0  0  0  0  0  0
    1.4483   -1.6730    0.0000 C   0  0  0  0  0  0  0  0  0  0  0  0
    1.7071   -0.7071    0.0000 C   0  0  0  0  0  0  0  0  0  0  0  0
    1.0000    0.0000    0.0000 C   0  0  0  0  0  0  0  0  0  0  0  0
    0.0000    0.0000    0.0000 C   0  0  0  0  0  0  0  0  0  0  0  0
   -0.7818   -0.6235    0.0000 C   0  0  0  0  0  0  0  0  0  0  0  0
   -1.7568   -0.4010    0.0000 O   0  0  0  0  0  0  0  0  0  0  0  0
   -2.1906    0.5000    0.0000 P   0  0  3  0  0  0  0  0  0  0  0  0
   -3.0567    1.0000    0.0000 O   0  0  0  0  0  0  0  0  0  0  0  0
   -3.0567    0.0000    0.0000 C   0  0  0  0  0  0  0  0  0  0  0  0
   -3.0567   -1.0000    0.0000 C   0  0  0  0  0  0  0  0  0  0  0  0
   -3.9227   -1.5000    0.0000 C   0  0  0  0  0  0  0  0  0  0  0  0
   -4.7887   -1.0000    0.0000 C   0  0  0  0  0  0  0  0  0  0  0  0
   -4.7887    0.0000    0.0000 C   0  0  0  0  0  0  0  0  0  0  0  0
   -3.9227    0.5000    0.0000 C   0  0  0  0  0  0  0  0  0  0  0  0
   -1.7568    1.4010    0.0000 O   0  0  0  0  0  0  0  0  0  0  0  0
   -0.7818    1.6235    0.0000 C   0  0  0  0  0  0  0  0  0  0  0  0
   -0.5593    2.5984    0.0000 C   0  0  0  0  0  0  0  0  0  0  0  0
   -1.2924    3.2786    0.0000 C   0  0  0  0  0  0  0  0  0  0  0  0
   -1.0698    4.2535    0.0000 C   0  0  0  0  0  0  0  0  0  0  0  0
   -0.1143    4.5483    0.0000 C   0  0  0  0  0  0  0  0  0  0  0  0
    0.6188    3.8681    0.0000 C   0  0  0  0  0  0  0  0  0  0  0  0
    1.5744    4.1629    0.0000 O   0  0  0  0  0  0  0  0  0  0  0  0
    2.3074    3.4827    0.0000 C   0  0  0  0  0  0  0  0  0  0  0  0
    0.3963    2.8932    0.0000 C   0  0  0  0  0  0  0  0  0  0  0  0
    0.0000    1.0000    0.0000 C   0  0  0  0  0  0  0  0  0  0  0  0
    1.0000    1.0000    0.0000 C   0  0  0  0  0  0  0  0  0  0  0  0
    2.6730   -0.4483    0.0000 C   0  0  0  0  0  0  0  0  0  0  0  0
  1  2  1  0  0  0  0
  2  3  1  0  0  0  0
  3 32  2  0  0  0  0
  3  4  1  0  0  0  0
  4  5  2  0  0  0  0
  5  6  1  0  0  0  0
  6  7  2  0  0  0  0
  7  8  1  0  0  0  0
  7 32  1  0  0  0  0
  8 31  1  0  0  0  0
  8  9  2  0  0  0  0
  9 30  1  0  0  0  0
  9 10  1  0  0  0  0
 10 11  1  0  0  0  0
 11 12  1  0  0  0  0
 12 13  2  0  0  0  0
 12 14  1  0  0  0  0
 12 20  1  0  0  0  0
 14 19  2  0  0  0  0
 14 15  1  0  0  0  0
 15 16  2  0  0  0  0
 16 17  1  0  0  0  0
 17 18  2  0  0  0  0
 18 19  1  0  0  0  0
 20 21  1  0  0  0  0
 21 22  1  0  0  0  0
 21 30  2  0  0  0  0
 22 29  2  0  0  0  0
 22 23  1  0  0  0  0
 23 24  2  0  0  0  0
 24 25  1  0  0  0  0
 25 26  2  0  0  0  0
 26 27  1  0  0  0  0
 26 29  1  0  0  0  0
 27 28  1  0  0  0  0
 30 31  1  0  0  0  0
M  END
> <NMREDATA_VERSION>
1.1

> <NMREDATA_LEVEL>
0

> <NMREDATA_SOLVENT>
CDCl3

> <NMREDATA_FORMULA>
C26H23O5P

> <NMREDATA_SMILES>
COc1cccc(c1)C1=C2C(=C(OP(=O)(OC2)c2ccccc2)c2cccc(c2)OC)C1

> <NMREDATA_ASSIGNMENT>
P12, 20.57, 12

> <NMREDATA_1D_31P>
Larmor=202
20.57, L=P12

$$$$
