
 OpenBabel06112616492D

 32 35  0  0  0  0  0  0  0  0999 V2000
    2.6562    1.9444    0.0000 C   0  0  0  0  0  0  0  0  0  0  0  0
    1.8142    2.4306    0.0000 C   0  0  0  0  0  0  0  0  0  0  0  0
    0.9722    1.9444    0.0000 N   0  0  0  0  0  0  0  0  0  0  0  0
    0.9722    0.0000    0.0000 P   0  0  1  0  0  0  0  0  0  0  0  0
    1.9444    0.0000    0.0000 C   0  0  0  0  0  0  0  0  0  0  0  0
    2.4306   -0.8420    0.0000 C   0  0  0  0  0  0  0  0  0  0  0  0
    1.9444   -1.6839    0.0000 C   0  0  0  0  0  0  0  0  0  0  0  0
    2.4306   -2.5259    0.0000 C   0  0  0  0  0  0  0  0  0  0  0  0
    3.4028   -2.5259    0.0000 C   0  0  0  0  0  0  0  0  0  0  0  0
    3.8889   -3.3679    0.0000 C   0  0  0  0  0  0  0  0  0  0  0  0
    4.8611   -3.3679    0.0000 C   0  0  0  0  0  0  0  0  0  0  0  0
    5.3472   -2.5259    0.0000 C   0  0  0  0  0  0  0  0  0  0  0  0
    4.8611   -1.6839    0.0000 C   0  0  0  0  0  0  0  0  0  0  0  0
    3.8889   -1.6839    0.0000 C   0  0  0  0  0  0  0  0  0  0  0  0
    3.4028   -0.8420    0.0000 C   0  0  0  0  0  0  0  0  0  0  0  0
    3.8889    0.0000    0.0000 C   0  0  0  0  0  0  0  0  0  0  0  0
    3.4028    0.8420    0.0000 C   0  0  0  0  0  0  0  0  0  0  0  0
    2.4306    0.8420    0.0000 C   0  0  0  0  0  0  0  0  0  0  0  0
    0.9722   -0.9722    0.0000 O   0  0  0  0  0  0  0  0  0  0  0  0
    0.0000    0.0000    0.0000 C   0  0  0  0  0  0  0  0  0  0  0  0
   -0.4861    0.8420    0.0000 C   0  0  0  0  0  0  0  0  0  0  0  0
   -1.4583    0.8420    0.0000 C   0  0  0  0  0  0  0  0  0  0  0  0
   -1.9444    0.0000    0.0000 C   0  0  0  0  0  0  0  0  0  0  0  0
   -1.4583   -0.8420    0.0000 C   0  0  0  0  0  0  0  0  0  0  0  0
   -0.4861   -0.8420    0.0000 C   0  0  0  0  0  0  0  0  0  0  0  0
    0.1303    2.4306    0.0000 C   0  0  0  0  0  0  0  0  0  0  0  0
   -0.7117    1.9444    0.0000 N   0  0  0  0  0  0  0  0  0  0  0  0
   -1.5537    2.4306    0.0000 C   0  0  0  0  0  0  0  0  0  0  0  0
   -1.5537    3.4028    0.0000 C   0  0  0  0  0  0  0  0  0  0  0  0
   -0.7117    3.8889    0.0000 C   0  0  0  0  0  0  0  0  0  0  0  0
    0.1303    3.4028    0.0000 C   0  0  0  0  0  0  0  0  0  0  0  0
    0.9722    3.8889    0.0000 C   0  0  0  0  0  0  0  0  0  0  0  0
  1  2  1  0  0  0  0
  2  3  1  0  0  0  0
  3  4  1  0  0  0  0
  3 26  1  0  0  0  0
  4  5  1  0  0  0  0
  4 19  2  1  0  0  0
  4 20  1  0  0  0  0
  5 18  2  0  0  0  0
  5  6  1  0  0  0  0
  6  7  1  0  0  0  0
  6 15  2  0  0  0  0
  7  8  2  3  0  0  0
  8  9  1  0  0  0  0
  9 14  2  0  0  0  0
  9 10  1  0  0  0  0
 10 11  2  0  0  0  0
 11 12  1  0  0  0  0
 12 13  2  0  0  0  0
 13 14  1  0  0  0  0
 15 16  1  0  0  0  0
 16 17  2  0  0  0  0
 17 18  1  0  0  0  0
 20 25  2  0  0  0  0
 20 21  1  0  0  0  0
 21 22  2  0  0  0  0
 22 23  1  0  0  0  0
 23 24  2  0  0  0  0
 24 25  1  0  0  0  0
 26 31  2  0  0  0  0
 26 27  1  0  0  0  0
 27 28  2  0  0  0  0
 28 29  1  0  0  0  0
 29 30  2  0  0  0  0
 30 31  1  0  0  0  0
 31 32  1  0  0  0  0
M  END
> <NMREDATA_VERSION>
1.1

> <NMREDATA_LEVEL>
0

> <NMREDATA_SOLVENT>
CDCl3

> <NMREDATA_FORMULA>
C28H27N2OP

> <NMREDATA_SMILES>
CCN([P@](=O)(c1ccccc1C=Cc1ccccc1)c1ccccc1)c1ncccc1C

> <NMREDATA_ASSIGNMENT>
P4, 29.01, 4

> <NMREDATA_1D_31P>
Larmor=162
29.01, L=P4

$$$$
