
 OpenBabel06112616482D

 54 59  0  0  1  0  0  0  0  0999 V2000
    1.0000   -1.0000    0.0000 O   0  0  0  0  0  0  0  0  0  0  0  0
    1.8660   -1.5000    0.0000 C   0  0  0  0  0  0  0  0  0  0  0  0
    1.8660   -2.5000    0.0000 C   0  0  2  0  0  0  0  0  0  0  0  0
    1.0000   -3.0000    0.0000 O   0  0  0  0  0  0  0  0  0  0  0  0
    0.1340   -2.5000    0.0000 C   0  0  0  0  0  0  0  0  0  0  0  0
   -0.7321   -3.0000    0.0000 C   0  0  0  0  0  0  0  0  0  0  0  0
   -1.5981   -2.5000    0.0000 C   0  0  0  0  0  0  0  0  0  0  0  0
   -2.4641   -3.0000    0.0000 C   0  0  0  0  0  0  0  0  0  0  0  0
   -2.4641   -4.0000    0.0000 C   0  0  0  0  0  0  0  0  0  0  0  0
   -1.5981   -4.5000    0.0000 C   0  0  0  0  0  0  0  0  0  0  0  0
   -0.7321   -4.0000    0.0000 C   0  0  0  0  0  0  0  0  0  0  0  0
    2.7321   -3.0000    0.0000 C   0  0  1  0  0  0  0  0  0  0  0  0
    3.5981   -2.5000    0.0000 C   0  0  2  0  0  0  0  0  0  0  0  0
    3.5981   -1.5000    0.0000 O   0  0  0  0  0  0  0  0  0  0  0  0
    4.4641   -3.0000    0.0000 O   0  0  0  0  0  0  0  0  0  0  0  0
    4.4641   -4.0000    0.0000 C   0  0  2  0  0  0  0  0  0  0  0  0
    5.3301   -4.5000    0.0000 C   0  0  0  0  0  0  0  0  0  0  0  0
    6.1962   -4.0000    0.0000 O   0  0  0  0  0  0  0  0  0  0  0  0
    7.0622   -4.5000    0.0000 C   0  0  0  0  0  0  0  0  0  0  0  0
    7.9282   -4.0000    0.0000 C   0  0  0  0  0  0  0  0  0  0  0  0
    7.9282   -3.0000    0.0000 C   0  0  0  0  0  0  0  0  0  0  0  0
    8.7942   -2.5000    0.0000 C   0  0  0  0  0  0  0  0  0  0  0  0
    9.6603   -3.0000    0.0000 C   0  0  0  0  0  0  0  0  0  0  0  0
    9.6603   -4.0000    0.0000 C   0  0  0  0  0  0  0  0  0  0  0  0
    8.7942   -4.5000    0.0000 C   0  0  0  0  0  0  0  0  0  0  0  0
    3.5981   -4.5000    0.0000 C   0  0  1  0  0  0  0  0  0  0  0  0
    3.5981   -5.5000    0.0000 O   0  0  0  0  0  0  0  0  0  0  0  0
    2.7321   -4.0000    0.0000 C   0  0  2  0  0  0  0  0  0  0  0  0
    1.8660   -4.5000    0.0000 O   0  0  0  0  0  0  0  0  0  0  0  0
    1.8660   -5.5000    0.0000 C   0  0  0  0  0  0  0  0  0  0  0  0
    1.0000   -6.0000    0.0000 C   0  0  0  0  0  0  0  0  0  0  0  0
    1.0000   -7.0000    0.0000 C   0  0  0  0  0  0  0  0  0  0  0  0
    0.1340   -7.5000    0.0000 C   0  0  0  0  0  0  0  0  0  0  0  0
   -0.7321   -7.0000    0.0000 C   0  0  0  0  0  0  0  0  0  0  0  0
   -0.7321   -6.0000    0.0000 C   0  0  0  0  0  0  0  0  0  0  0  0
    0.1340   -5.5000    0.0000 C   0  0  0  0  0  0  0  0  0  0  0  0
    1.0000    0.0000    0.0000 P   0  0  0  0  0  0  0  0  0  0  0  0
    2.0000    0.0000    0.0000 O   0  0  0  0  0  0  0  0  0  0  0  0
    1.0000    1.0000    0.0000 O   0  0  0  0  0  0  0  0  0  0  0  0
    0.1340    1.5000    0.0000 C   0  0  0  0  0  0  0  0  0  0  0  0
    0.1340    2.5000    0.0000 C   0  0  0  0  0  0  0  0  0  0  0  0
   -0.7321    3.0000    0.0000 C   0  0  0  0  0  0  0  0  0  0  0  0
   -0.7321    4.0000    0.0000 C   0  0  0  0  0  0  0  0  0  0  0  0
    0.1340    4.5000    0.0000 C   0  0  0  0  0  0  0  0  0  0  0  0
    1.0000    4.0000    0.0000 C   0  0  0  0  0  0  0  0  0  0  0  0
    1.0000    3.0000    0.0000 C   0  0  0  0  0  0  0  0  0  0  0  0
    0.0000    0.0000    0.0000 O   0  0  0  0  0  0  0  0  0  0  0  0
   -0.5000    0.8660    0.0000 C   0  0  0  0  0  0  0  0  0  0  0  0
   -1.5000    0.8660    0.0000 C   0  0  0  0  0  0  0  0  0  0  0  0
   -2.0000    0.0000    0.0000 C   0  0  0  0  0  0  0  0  0  0  0  0
   -3.0000    0.0000    0.0000 C   0  0  0  0  0  0  0  0  0  0  0  0
   -3.5000    0.8660    0.0000 C   0  0  0  0  0  0  0  0  0  0  0  0
   -3.0000    1.7321    0.0000 C   0  0  0  0  0  0  0  0  0  0  0  0
   -2.0000    1.7321    0.0000 C   0  0  0  0  0  0  0  0  0  0  0  0
  1  2  1  0  0  0  0
  1 37  1  0  0  0  0
  3  2  1  1  0  0  0
  3  4  1  0  0  0  0
  4  5  1  0  0  0  0
  5  6  1  0  0  0  0
  6 11  2  0  0  0  0
  6  7  1  0  0  0  0
  7  8  2  0  0  0  0
  8  9  1  0  0  0  0
  9 10  2  0  0  0  0
 10 11  1  0  0  0  0
 12  3  1  1  0  0  0
 12 13  1  0  0  0  0
 12 28  1  0  0  0  0
 13 14  1  6  0  0  0
 13 15  1  0  0  0  0
 15 16  1  0  0  0  0
 16 17  1  6  0  0  0
 16 26  1  0  0  0  0
 17 18  1  0  0  0  0
 18 19  1  0  0  0  0
 19 20  1  0  0  0  0
 20 25  2  0  0  0  0
 20 21  1  0  0  0  0
 21 22  2  0  0  0  0
 22 23  1  0  0  0  0
 23 24  2  0  0  0  0
 24 25  1  0  0  0  0
 26 27  1  1  0  0  0
 26 28  1  0  0  0  0
 28 29  1  6  0  0  0
 29 30  1  0  0  0  0
 30 31  1  0  0  0  0
 31 36  2  0  0  0  0
 31 32  1  0  0  0  0
 32 33  2  0  0  0  0
 33 34  1  0  0  0  0
 34 35  2  0  0  0  0
 35 36  1  0  0  0  0
 37 38  2  0  0  0  0
 37 39  1  0  0  0  0
 37 47  1  0  0  0  0
 39 40  1  0  0  0  0
 40 41  1  0  0  0  0
 41 46  2  0  0  0  0
 41 42  1  0  0  0  0
 42 43  2  0  0  0  0
 43 44  1  0  0  0  0
 44 45  2  0  0  0  0
 45 46  1  0  0  0  0
 47 48  1  0  0  0  0
 48 49  1  0  0  0  0
 49 54  2  0  0  0  0
 49 50  1  0  0  0  0
 50 51  2  0  0  0  0
 51 52  1  0  0  0  0
 52 53  2  0  0  0  0
 53 54  1  0  0  0  0
M  END
> <NMREDATA_VERSION>
1.1

> <NMREDATA_LEVEL>
0

> <NMREDATA_SOLVENT>
CDCl3

> <NMREDATA_FORMULA>
C43H47O10P

> <NMREDATA_SMILES>
O[C@@H]1[C@@H](COCc2ccccc2)O[C@H]([C@@H]([C@H]1OCc1ccccc1)[C@H](COP(=O)(OCc1ccccc1)OCc1ccccc1)OCc1ccccc1)O

> <NMREDATA_ASSIGNMENT>
P37, -0.97, 37

> <NMREDATA_1D_31P>
Larmor=162
-0.97, L=P37

$$$$
