
 OpenBabel06112616432D

 34 37  0  0  0  0  0  0  0  0999 V2000
    3.5968    1.5665    0.0000 C   0  0  0  0  0  0  0  0  0  0  0  0
    4.4430    2.0993    0.0000 C   0  0  0  0  0  0  0  0  0  0  0  0
    4.4046    3.0986    0.0000 C   0  0  0  0  0  0  0  0  0  0  0  0
    5.2508    3.6315    0.0000 C   0  0  0  0  0  0  0  0  0  0  0  0
    6.1354    3.1651    0.0000 C   0  0  0  0  0  0  0  0  0  0  0  0
    6.1738    2.1658    0.0000 C   0  0  0  0  0  0  0  0  0  0  0  0
    7.0584    1.6994    0.0000 C   0  0  0  0  0  0  0  0  0  0  0  0
    5.3276    1.6329    0.0000 C   0  0  0  0  0  0  0  0  0  0  0  0
    5.3659    0.6337    0.0000 O   0  0  0  0  0  0  0  0  0  0  0  0
    4.5197    0.1008    0.0000 C   0  0  0  0  0  0  0  0  0  0  0  0
    3.6352    0.5672    0.0000 C   0  0  0  0  0  0  0  0  0  0  0  0
    2.7506    1.0336    0.0000 C   0  0  0  0  0  0  0  0  0  0  0  0
    1.8660    1.5000    0.0000 C   0  0  0  0  0  0  0  0  0  0  0  0
    1.0000    1.0000    0.0000 O   0  0  0  0  0  0  0  0  0  0  0  0
    1.0000    0.0000    0.0000 P   0  0  0  0  0  0  0  0  0  0  0  0
    2.0000    0.0000    0.0000 O   0  0  0  0  0  0  0  0  0  0  0  0
    1.0000   -1.0000    0.0000 C   0  0  0  0  0  0  0  0  0  0  0  0
    0.1340   -1.5000    0.0000 C   0  0  0  0  0  0  0  0  0  0  0  0
    0.1340   -2.5000    0.0000 C   0  0  0  0  0  0  0  0  0  0  0  0
    1.0000   -3.0000    0.0000 C   0  0  0  0  0  0  0  0  0  0  0  0
    1.8660   -2.5000    0.0000 C   0  0  0  0  0  0  0  0  0  0  0  0
    1.8660   -1.5000    0.0000 C   0  0  0  0  0  0  0  0  0  0  0  0
    0.0000    0.0000    0.0000 C   0  0  0  0  0  0  0  0  0  0  0  0
   -0.5000    0.8660    0.0000 C   0  0  0  0  0  0  0  0  0  0  0  0
   -1.5000    0.8660    0.0000 C   0  0  0  0  0  0  0  0  0  0  0  0
   -2.0000    0.0000    0.0000 C   0  0  0  0  0  0  0  0  0  0  0  0
   -1.5000   -0.8660    0.0000 C   0  0  0  0  0  0  0  0  0  0  0  0
   -0.5000   -0.8660    0.0000 C   0  0  0  0  0  0  0  0  0  0  0  0
    0.8770    1.6481    0.0000 C   0  0  0  0  0  0  0  0  0  0  0  0
    0.3762    2.5136    0.0000 C   0  0  0  0  0  0  0  0  0  0  0  0
    0.7406    3.4448    0.0000 C   0  0  0  0  0  0  0  0  0  0  0  0
    1.6959    3.7405    0.0000 C   0  0  0  0  0  0  0  0  0  0  0  0
    2.5227    3.1780    0.0000 C   0  0  0  0  0  0  0  0  0  0  0  0
    2.5984    2.1809    0.0000 C   0  0  0  0  0  0  0  0  0  0  0  0
  1  2  1  0  0  0  0
  2  8  2  0  0  0  0
  2  3  1  0  0  0  0
  3  4  2  0  0  0  0
  4  5  1  0  0  0  0
  5  6  2  0  0  0  0
  6  7  1  0  0  0  0
  6  8  1  0  0  0  0
  8  9  1  0  0  0  0
  9 10  1  0  0  0  0
 10 11  1  0  0  0  0
 11 12  3  0  0  0  0
 12 13  1  0  0  0  0
 13 34  1  0  0  0  0
 13 14  1  0  0  0  0
 13 29  1  0  0  0  0
 14 15  1  0  0  0  0
 15 16  2  0  0  0  0
 15 17  1  0  0  0  0
 15 23  1  0  0  0  0
 17 22  2  0  0  0  0
 17 18  1  0  0  0  0
 18 19  2  0  0  0  0
 19 20  1  0  0  0  0
 20 21  2  0  0  0  0
 21 22  1  0  0  0  0
 23 28  2  0  0  0  0
 23 24  1  0  0  0  0
 24 25  2  0  0  0  0
 25 26  1  0  0  0  0
 26 27  2  0  0  0  0
 27 28  1  0  0  0  0
 29 30  1  0  0  0  0
 30 31  1  0  0  0  0
 31 32  1  0  0  0  0
 32 33  1  0  0  0  0
 33 34  1  0  0  0  0
M  END
> <NMREDATA_VERSION>
1.1

> <NMREDATA_LEVEL>
0

> <NMREDATA_SOLVENT>
CDCl3

> <NMREDATA_FORMULA>
C30H33O3P

> <NMREDATA_SMILES>
Cc1cccc(c1OCC#CC1(CCCCCC1)OP(=O)(c1ccccc1)c1ccccc1)C

> <NMREDATA_ASSIGNMENT>
P15, 27.28, 15

> <NMREDATA_1D_31P>
Larmor=162
27.28, L=P15

$$$$
