
 OpenBabel06112616452D

 28 29  0  0  1  0  0  0  0  0999 V2000
    1.8660   -1.5000    0.0000 C   0  0  0  0  0  0  0  0  0  0  0  0
    1.0000   -1.0000    0.0000 O   0  0  0  0  0  0  0  0  0  0  0  0
    1.0000    0.0000    0.0000 P   0  0  0  0  0  0  0  0  0  0  0  0
    2.0000    0.0000    0.0000 O   0  0  0  0  0  0  0  0  0  0  0  0
    1.0000    1.0000    0.0000 O   0  0  0  0  0  0  0  0  0  0  0  0
    1.8660    1.5000    0.0000 C   0  0  0  0  0  0  0  0  0  0  0  0
    0.0000    0.0000    0.0000 C   0  0  2  0  0  0  0  0  0  0  0  0
   -0.4339   -0.9010    0.0000 C   0  0  0  0  0  0  0  0  0  0  0  0
   -1.4088   -1.1235    0.0000 C   0  0  0  0  0  0  0  0  0  0  0  0
   -2.1906   -0.5000    0.0000 C   0  0  1  0  0  0  0  0  0  0  0  0
   -3.0916   -0.9339    0.0000 C   0  0  0  0  0  0  0  0  0  0  0  0
   -3.1663   -1.9311    0.0000 C   0  0  0  0  0  0  0  0  0  0  0  0
   -4.0673   -2.3650    0.0000 C   0  0  0  0  0  0  0  0  0  0  0  0
   -4.1420   -3.3622    0.0000 C   0  0  0  0  0  0  0  0  0  0  0  0
   -3.7082   -4.2631    0.0000 F   0  0  0  0  0  0  0  0  0  0  0  0
   -3.1448   -3.4369    0.0000 F   0  0  0  0  0  0  0  0  0  0  0  0
   -5.0430   -3.7961    0.0000 F   0  0  0  0  0  0  0  0  0  0  0  0
   -4.8935   -1.8017    0.0000 C   0  0  0  0  0  0  0  0  0  0  0  0
   -4.8188   -0.8044    0.0000 C   0  0  0  0  0  0  0  0  0  0  0  0
   -5.6451   -0.2411    0.0000 C   0  0  0  0  0  0  0  0  0  0  0  0
   -6.6423   -0.1664    0.0000 F   0  0  0  0  0  0  0  0  0  0  0  0
   -6.2084   -1.0674    0.0000 F   0  0  0  0  0  0  0  0  0  0  0  0
   -5.5703    0.7561    0.0000 F   0  0  0  0  0  0  0  0  0  0  0  0
   -3.9179   -0.3706    0.0000 C   0  0  0  0  0  0  0  0  0  0  0  0
   -2.1906    0.5000    0.0000 C   0  0  0  0  0  0  0  0  0  0  0  0
   -1.4088    1.1235    0.0000 C   0  0  0  0  0  0  0  0  0  0  0  0
   -0.4339    0.9010    0.0000 C   0  0  0  0  0  0  0  0  0  0  0  0
    0.1896    1.6828    0.0000 O   0  0  0  0  0  0  0  0  0  0  0  0
  1  2  1  0  0  0  0
  2  3  1  0  0  0  0
  3  4  2  0  0  0  0
  3  5  1  0  0  0  0
  5  6  1  0  0  0  0
  7  3  1  6  0  0  0
  7  8  1  0  0  0  0
  7 27  1  0  0  0  0
  8  9  1  0  0  0  0
  9 10  1  0  0  0  0
 10 11  1  1  0  0  0
 10 25  1  0  0  0  0
 11 24  2  0  0  0  0
 11 12  1  0  0  0  0
 12 13  2  0  0  0  0
 13 14  1  0  0  0  0
 13 18  1  0  0  0  0
 14 15  1  0  0  0  0
 14 16  1  0  0  0  0
 14 17  1  0  0  0  0
 18 19  2  0  0  0  0
 19 20  1  0  0  0  0
 19 24  1  0  0  0  0
 20 21  1  0  0  0  0
 20 22  1  0  0  0  0
 20 23  1  0  0  0  0
 25 26  1  0  0  0  0
 26 27  1  0  0  0  0
 27 28  2  0  0  0  0
M  END
> <NMREDATA_VERSION>
1.1

> <NMREDATA_LEVEL>
0

> <NMREDATA_SOLVENT>
CDCl3

> <NMREDATA_FORMULA>
C17H19F6O4P

> <NMREDATA_SMILES>
COP(=O)([C@@H]1CC[C@H](CCC1=O)c1cc(cc(c1)C(F)(F)F)C(F)(F)F)OC

> <NMREDATA_ASSIGNMENT>
P3, 24.19, 3

> <NMREDATA_1D_31P>
Larmor=243
24.19, L=P3

$$$$
