
 OpenBabel06112616422D

112124  0  0  1  0  0  0  0  0999 V2000
    0.8390    1.4531    0.0000 C   0  0  0  0  0  0  0  0  0  0  0  0
    0.3546    2.2921    0.0000 F   0  0  0  0  0  0  0  0  0  0  0  0
   -0.1298    1.4531    0.0000 F   0  0  0  0  0  0  0  0  0  0  0  0
    1.6779    1.9375    0.0000 F   0  0  0  0  0  0  0  0  0  0  0  0
    0.8390    0.4844    0.0000 C   0  0  0  0  0  0  0  0  0  0  0  0
    1.6779    0.0000    0.0000 C   0  0  0  0  0  0  0  0  0  0  0  0
    1.6779   -0.9687    0.0000 C   0  0  0  0  0  0  0  0  0  0  0  0
    3.3558   -1.9375    0.0000 C   0  0  0  0  0  0  0  0  0  0  0  0
    4.3219   -1.8651    0.0000 C   0  0  2  0  0  0  0  0  0  0  0  0
    4.9808   -2.5752    0.0000 C   0  0  2  0  0  0  0  0  0  0  0  0
    5.8598   -2.1680    0.0000 O   0  0  0  0  0  0  0  0  0  0  0  0
    5.7441   -1.2062    0.0000 C   0  0  0  0  0  0  0  0  0  0  0  0
    4.7937   -1.0190    0.0000 O   0  0  0  0  0  0  0  0  0  0  0  0
    6.0297   -0.2805    0.0000 C   0  0  0  0  0  0  0  0  0  0  0  0
    6.6886   -0.9906    0.0000 C   0  0  0  0  0  0  0  0  0  0  0  0
    4.8364   -3.5332    0.0000 C   0  0  0  0  0  0  0  0  0  0  0  0
    6.7685   -3.6780    0.0000 C   0  0  0  0  0  0  0  0  0  0  0  0
    7.1888   -4.5508    0.0000 C   0  0  0  0  0  0  0  0  0  0  0  0
    8.1549   -4.6232    0.0000 C   0  0  0  0  0  0  0  0  0  0  0  0
    8.5752   -5.4960    0.0000 C   0  0  0  0  0  0  0  0  0  0  0  0
    8.5028   -6.4620    0.0000 F   0  0  0  0  0  0  0  0  0  0  0  0
    7.7024   -5.9163    0.0000 F   0  0  0  0  0  0  0  0  0  0  0  0
    9.5412   -5.5684    0.0000 F   0  0  0  0  0  0  0  0  0  0  0  0
    8.7006   -3.8228    0.0000 C   0  0  0  0  0  0  0  0  0  0  0  0
    8.2803   -2.9499    0.0000 C   0  0  0  0  0  0  0  0  0  0  0  0
    7.3142   -2.8775    0.0000 C   0  0  0  0  0  0  0  0  0  0  0  0
    5.2567   -4.4060    0.0000 C   0  0  0  0  0  0  0  0  0  0  0  0
    4.7110   -5.2064    0.0000 C   0  0  0  0  0  0  0  0  0  0  0  0
    5.1314   -6.0792    0.0000 C   0  0  0  0  0  0  0  0  0  0  0  0
    4.5856   -6.8796    0.0000 C   0  0  0  0  0  0  0  0  0  0  0  0
    4.5132   -7.8457    0.0000 F   0  0  0  0  0  0  0  0  0  0  0  0
    5.3861   -7.4254    0.0000 F   0  0  0  0  0  0  0  0  0  0  0  0
    3.6196   -6.8072    0.0000 F   0  0  0  0  0  0  0  0  0  0  0  0
    6.0974   -6.1516    0.0000 C   0  0  0  0  0  0  0  0  0  0  0  0
    6.6431   -5.3512    0.0000 C   0  0  0  0  0  0  0  0  0  0  0  0
    6.2228   -4.4784    0.0000 C   0  0  0  0  0  0  0  0  0  0  0  0
    3.9975   -4.0176    0.0000 O   0  0  0  0  0  0  0  0  0  0  0  0
    3.0957   -3.6636    0.0000 P   0  0  3  0  0  0  0  0  0  0  0  0
    2.3855   -4.3225    0.0000 O   0  0  0  0  0  0  0  0  0  0  0  0
    1.4598   -4.0370    0.0000 C   0  0  0  0  0  0  0  0  0  0  0  0
    0.7497   -4.6959    0.0000 C   0  0  0  0  0  0  0  0  0  0  0  0
    0.9652   -5.6404    0.0000 O   0  0  0  0  0  0  0  0  0  0  0  0
    0.2551   -6.2993    0.0000 P   0  0  3  0  0  0  0  0  0  0  0  0
    0.5406   -7.2250    0.0000 O   0  0  0  0  0  0  0  0  0  0  0  0
   -0.0051   -8.0254    0.0000 C   0  0  0  0  0  0  0  0  0  0  0  0
   -0.0051   -8.9942    0.0000 C   0  0  0  0  0  0  0  0  0  0  0  0
   -0.8440   -9.4786    0.0000 C   0  0  0  0  0  0  0  0  0  0  0  0
   -0.8440  -10.4473    0.0000 C   0  0  0  0  0  0  0  0  0  0  0  0
   -1.6830  -10.9317    0.0000 C   0  0  0  0  0  0  0  0  0  0  0  0
   -2.6517  -10.9317    0.0000 F   0  0  0  0  0  0  0  0  0  0  0  0
   -2.1674  -10.0927    0.0000 F   0  0  0  0  0  0  0  0  0  0  0  0
   -1.6830  -11.9004    0.0000 F   0  0  0  0  0  0  0  0  0  0  0  0
   -0.0051  -10.9317    0.0000 C   0  0  0  0  0  0  0  0  0  0  0  0
    0.8339  -10.4473    0.0000 C   0  0  0  0  0  0  0  0  0  0  0  0
    0.8339   -9.4786    0.0000 C   0  0  0  0  0  0  0  0  0  0  0  0
    1.6729   -8.9942    0.0000 C   0  0  0  0  0  0  0  0  0  0  0  0
    1.6729   -9.9629    0.0000 C   0  0  0  0  0  0  0  0  0  0  0  0
    2.5118  -10.4473    0.0000 C   0  0  0  0  0  0  0  0  0  0  0  0
    2.5118  -11.4161    0.0000 C   0  0  0  0  0  0  0  0  0  0  0  0
    2.0274  -12.2550    0.0000 F   0  0  0  0  0  0  0  0  0  0  0  0
    1.5431  -11.4161    0.0000 F   0  0  0  0  0  0  0  0  0  0  0  0
    3.3508  -11.9004    0.0000 F   0  0  0  0  0  0  0  0  0  0  0  0
    3.3508   -9.9629    0.0000 C   0  0  0  0  0  0  0  0  0  0  0  0
    3.3508   -8.9942    0.0000 C   0  0  0  0  0  0  0  0  0  0  0  0
    2.5118   -8.5098    0.0000 C   0  0  0  0  0  0  0  0  0  0  0  0
   -0.9711   -8.0978    0.0000 C   0  0  2  0  0  0  0  0  0  0  0  0
   -1.6300   -7.3877    0.0000 C   0  0  2  0  0  0  0  0  0  0  0  0
   -2.5090   -7.7949    0.0000 O   0  0  0  0  0  0  0  0  0  0  0  0
   -2.3934   -8.7567    0.0000 C   0  0  0  0  0  0  0  0  0  0  0  0
   -1.4429   -8.9439    0.0000 O   0  0  0  0  0  0  0  0  0  0  0  0
   -3.3378   -8.9723    0.0000 C   0  0  0  0  0  0  0  0  0  0  0  0
   -2.6789   -9.6824    0.0000 C   0  0  0  0  0  0  0  0  0  0  0  0
   -1.4856   -6.4298    0.0000 C   0  0  0  0  0  0  0  0  0  0  0  0
   -2.3263   -4.6841    0.0000 C   0  0  0  0  0  0  0  0  0  0  0  0
   -3.2923   -4.6117    0.0000 C   0  0  0  0  0  0  0  0  0  0  0  0
   -3.7127   -3.7389    0.0000 C   0  0  0  0  0  0  0  0  0  0  0  0
   -4.6787   -3.6665    0.0000 C   0  0  0  0  0  0  0  0  0  0  0  0
   -5.5515   -4.0868    0.0000 F   0  0  0  0  0  0  0  0  0  0  0  0
   -4.7511   -4.6326    0.0000 F   0  0  0  0  0  0  0  0  0  0  0  0
   -5.0990   -2.7937    0.0000 F   0  0  0  0  0  0  0  0  0  0  0  0
   -3.1669   -2.9385    0.0000 C   0  0  0  0  0  0  0  0  0  0  0  0
   -2.2009   -3.0109    0.0000 C   0  0  0  0  0  0  0  0  0  0  0  0
   -1.7806   -3.8837    0.0000 C   0  0  0  0  0  0  0  0  0  0  0  0
   -2.4517   -6.3574    0.0000 C   0  0  0  0  0  0  0  0  0  0  0  0
   -2.9974   -7.1578    0.0000 C   0  0  0  0  0  0  0  0  0  0  0  0
   -3.9634   -7.0854    0.0000 C   0  0  0  0  0  0  0  0  0  0  0  0
   -4.5092   -7.8858    0.0000 C   0  0  0  0  0  0  0  0  0  0  0  0
   -4.5816   -8.8518    0.0000 F   0  0  0  0  0  0  0  0  0  0  0  0
   -3.7087   -8.4315    0.0000 F   0  0  0  0  0  0  0  0  0  0  0  0
   -5.4752   -7.8134    0.0000 F   0  0  0  0  0  0  0  0  0  0  0  0
   -4.3838   -6.2126    0.0000 C   0  0  0  0  0  0  0  0  0  0  0  0
   -3.8381   -5.4121    0.0000 C   0  0  0  0  0  0  0  0  0  0  0  0
   -2.8720   -5.4845    0.0000 C   0  0  0  0  0  0  0  0  0  0  0  0
   -0.6467   -5.9454    0.0000 O   0  0  0  0  0  0  0  0  0  0  0  0
   -0.1760   -4.4104    0.0000 C   0  0  0  0  0  0  0  0  0  0  0  0
   -0.3916   -3.4659    0.0000 C   0  0  0  0  0  0  0  0  0  0  0  0
    0.3185   -2.8070    0.0000 C   0  0  0  0  0  0  0  0  0  0  0  0
    1.2443   -3.0925    0.0000 C   0  0  0  0  0  0  0  0  0  0  0  0
    2.8101   -2.7379    0.0000 O   0  0  0  0  0  0  0  0  0  0  0  0
    3.3558   -0.9687    0.0000 C   0  0  0  0  0  0  0  0  0  0  0  0
    4.1948   -0.4844    0.0000 C   0  0  0  0  0  0  0  0  0  0  0  0
    4.1948    0.4844    0.0000 C   0  0  0  0  0  0  0  0  0  0  0  0
    5.0338    0.9687    0.0000 C   0  0  0  0  0  0  0  0  0  0  0  0
    6.0025    0.9687    0.0000 F   0  0  0  0  0  0  0  0  0  0  0  0
    5.5181    0.1298    0.0000 F   0  0  0  0  0  0  0  0  0  0  0  0
    5.0338    1.9375    0.0000 F   0  0  0  0  0  0  0  0  0  0  0  0
    3.3558    0.9688    0.0000 C   0  0  0  0  0  0  0  0  0  0  0  0
    2.5169    0.4844    0.0000 C   0  0  0  0  0  0  0  0  0  0  0  0
    2.5169   -0.4844    0.0000 C   0  0  0  0  0  0  0  0  0  0  0  0
    0.8390   -1.4531    0.0000 C   0  0  0  0  0  0  0  0  0  0  0  0
    0.0000   -0.9688    0.0000 C   0  0  0  0  0  0  0  0  0  0  0  0
    0.0000    0.0000    0.0000 C   0  0  0  0  0  0  0  0  0  0  0  0
  1  2  1  0  0  0  0
  1  3  1  0  0  0  0
  1  4  1  0  0  0  0
  1  5  1  0  0  0  0
  5112  2  0  0  0  0
  5  6  1  0  0  0  0
  6  7  2  0  0  0  0
  7  8  1  0  0  0  0
  7110  1  0  0  0  0
  8 99  1  0  0  0  0
  8  9  1  0  0  0  0
  8100  1  0  0  0  0
  9 10  1  0  0  0  0
  9 13  1  1  0  0  0
 10 11  1  6  0  0  0
 10 16  1  0  0  0  0
 11 12  1  0  0  0  0
 12 13  1  0  0  0  0
 12 14  1  0  0  0  0
 12 15  1  0  0  0  0
 16 17  1  0  0  0  0
 16 27  1  0  0  0  0
 16 37  1  0  0  0  0
 17 26  2  0  0  0  0
 17 18  1  0  0  0  0
 18 19  2  0  0  0  0
 19 20  1  0  0  0  0
 19 24  1  0  0  0  0
 20 21  1  0  0  0  0
 20 22  1  0  0  0  0
 20 23  1  0  0  0  0
 24 25  2  0  0  0  0
 25 26  1  0  0  0  0
 27 36  2  0  0  0  0
 27 28  1  0  0  0  0
 28 29  2  0  0  0  0
 29 30  1  0  0  0  0
 29 34  1  0  0  0  0
 30 31  1  0  0  0  0
 30 32  1  0  0  0  0
 30 33  1  0  0  0  0
 34 35  2  0  0  0  0
 35 36  1  0  0  0  0
 37 38  1  0  0  0  0
 38 39  1  0  0  0  0
 38 99  1  0  0  0  0
 39 40  1  0  0  0  0
 40 98  2  0  0  0  0
 40 41  1  0  0  0  0
 41 42  1  0  0  0  0
 41 95  2  0  0  0  0
 42 43  1  0  0  0  0
 43 94  1  0  0  0  0
 43 44  1  0  0  0  0
 44 45  1  0  0  0  0
 45 46  1  0  0  0  0
 45 56  1  0  0  0  0
 45 66  1  0  0  0  0
 46 55  2  0  0  0  0
 46 47  1  0  0  0  0
 47 48  2  0  0  0  0
 48 49  1  0  0  0  0
 48 53  1  0  0  0  0
 49 50  1  0  0  0  0
 49 51  1  0  0  0  0
 49 52  1  0  0  0  0
 53 54  2  0  0  0  0
 54 55  1  0  0  0  0
 56 65  2  0  0  0  0
 56 57  1  0  0  0  0
 57 58  2  0  0  0  0
 58 59  1  0  0  0  0
 58 63  1  0  0  0  0
 59 60  1  0  0  0  0
 59 61  1  0  0  0  0
 59 62  1  0  0  0  0
 63 64  2  0  0  0  0
 64 65  1  0  0  0  0
 66 67  1  0  0  0  0
 66 70  1  1  0  0  0
 67 68  1  6  0  0  0
 67 73  1  0  0  0  0
 68 69  1  0  0  0  0
 69 70  1  0  0  0  0
 69 71  1  0  0  0  0
 69 72  1  0  0  0  0
 73 74  1  0  0  0  0
 73 84  1  0  0  0  0
 73 94  1  0  0  0  0
 74 83  2  0  0  0  0
 74 75  1  0  0  0  0
 75 76  2  0  0  0  0
 76 77  1  0  0  0  0
 76 81  1  0  0  0  0
 77 78  1  0  0  0  0
 77 79  1  0  0  0  0
 77 80  1  0  0  0  0
 81 82  2  0  0  0  0
 82 83  1  0  0  0  0
 84 93  2  0  0  0  0
 84 85  1  0  0  0  0
 85 86  2  0  0  0  0
 86 87  1  0  0  0  0
 86 91  1  0  0  0  0
 87 88  1  0  0  0  0
 87 89  1  0  0  0  0
 87 90  1  0  0  0  0
 91 92  2  0  0  0  0
 92 93  1  0  0  0  0
 95 96  1  0  0  0  0
 96 97  2  0  0  0  0
 97 98  1  0  0  0  0
100109  2  0  0  0  0
100101  1  0  0  0  0
101102  2  0  0  0  0
102103  1  0  0  0  0
102107  1  0  0  0  0
103104  1  0  0  0  0
103105  1  0  0  0  0
103106  1  0  0  0  0
107108  2  0  0  0  0
108109  1  0  0  0  0
110111  2  0  0  0  0
111112  1  0  0  0  0
M  END
> <NMREDATA_VERSION>
1.1

> <NMREDATA_LEVEL>
0

> <NMREDATA_SOLVENT>
C6D6

> <NMREDATA_FORMULA>
C76H52F24O10P2

> <NMREDATA_SMILES>
CC1(C)O[C@H]2[C@H](O1)C(OP(OC2(c1cccc(c1)C(F)(F)F)c1cccc(c1)C(F)(F)F)Oc1ccccc1OP1OC(c2cccc(c2)C(F)(F)F)(c2cccc(c2)C(F)(F)F)[C@@H]2[C@@H](C(O1)(c1cccc(c1)C(F)(F)F)c1cccc(c1)C(F)(F)F)OC(O2)(C)C)(c1cccc(c1)C(F)(F)F)c1cccc(c1)C(F)(F)F

> <NMREDATA_ASSIGNMENT>
P38, 131.96, 38
P43, 131.96, 43

> <NMREDATA_1D_31P>
Larmor=202
131.96, L=P38
131.96, L=P43

$$$$
