
 OpenBabel06112616472D

 51 57  0  0  0  0  0  0  0  0999 V2000
   11.8262   -0.5000    0.0000 Br   0  5  0  0  0  0  0  0  0  0  0  0
    1.6657   -3.2581    0.0000 C    0  0  0  0  0  0  0  0  0  0  0  0
    2.4619   -2.7984    0.0000 C    0  0  0  0  0  0  0  0  0  0  0  0
    3.2581   -3.2581    0.0000 C    0  0  0  0  0  0  0  0  0  0  0  0
    3.2581   -4.1774    0.0000 C    0  0  0  0  0  0  0  0  0  0  0  0
    4.0542   -4.6371    0.0000 C    0  0  0  0  0  0  0  0  0  0  0  0
    4.8504   -4.1774    0.0000 C    0  0  0  0  0  0  0  0  0  0  0  0
    4.8504   -3.2581    0.0000 C    0  0  0  0  0  0  0  0  0  0  0  0
    3.2581   -2.3387    0.0000 N    0  0  0  0  0  0  0  0  0  0  0  0
    3.2581   -1.4194    0.0000 S    0  0  0  0  0  0  0  0  0  0  0  0
    4.1774   -1.4194    0.0000 O    0  0  0  0  0  0  0  0  0  0  0  0
    3.2581   -0.5000    0.0000 O    0  0  0  0  0  0  0  0  0  0  0  0
    2.3387   -1.4194    0.0000 C    0  0  0  0  0  0  0  0  0  0  0  0
    1.8790   -2.2155    0.0000 C    0  0  0  0  0  0  0  0  0  0  0  0
    0.9597   -2.2155    0.0000 C    0  0  0  0  0  0  0  0  0  0  0  0
    0.5000   -1.4194    0.0000 C    0  0  0  0  0  0  0  0  0  0  0  0
    0.9597   -0.6232    0.0000 C    0  0  0  0  0  0  0  0  0  0  0  0
    1.8790   -0.6232    0.0000 C    0  0  0  0  0  0  0  0  0  0  0  0
    5.6466   -2.7984    0.0000 C    0  0  0  0  0  0  0  0  0  0  0  0
    6.4428   -3.2581    0.0000 C    0  0  0  0  0  0  0  0  0  0  0  0
    6.4428   -4.1774    0.0000 C    0  0  0  0  0  0  0  0  0  0  0  0
    7.2390   -4.6371    0.0000 C    0  0  0  0  0  0  0  0  0  0  0  0
    7.2390   -5.5565    0.0000 C    0  0  0  0  0  0  0  0  0  0  0  0
    6.4428   -6.0161    0.0000 C    0  0  0  0  0  0  0  0  0  0  0  0
    5.6466   -5.5565    0.0000 C    0  0  0  0  0  0  0  0  0  0  0  0
    5.6466   -4.6371    0.0000 C    0  0  0  0  0  0  0  0  0  0  0  0
    4.0542   -5.5565    0.0000 C    0  0  0  0  0  0  0  0  0  0  0  0
    4.8504   -6.0161    0.0000 P    0  3  0  0  0  0  0  0  0  0  0  0
    5.3101   -5.2199    0.0000 C    0  0  0  0  0  0  0  0  0  0  0  0
    8.9875   -5.2199    0.0000 C    0  0  0  0  0  0  0  0  0  0  0  0
    9.4472   -6.0161    0.0000 C    0  0  0  0  0  0  0  0  0  0  0  0
   10.3666   -6.0161    0.0000 C    0  0  0  0  0  0  0  0  0  0  0  0
   10.8262   -5.2199    0.0000 C    0  0  0  0  0  0  0  0  0  0  0  0
   10.3666   -4.4238    0.0000 C    0  0  0  0  0  0  0  0  0  0  0  0
    9.4472   -4.4238    0.0000 C    0  0  0  0  0  0  0  0  0  0  0  0
    6.4428   -6.9355    0.0000 C    0  0  0  0  0  0  0  0  0  0  0  0
    6.4428   -7.8548    0.0000 C    0  0  0  0  0  0  0  0  0  0  0  0
    7.2390   -8.3145    0.0000 C    0  0  0  0  0  0  0  0  0  0  0  0
    8.0352   -7.8548    0.0000 C    0  0  0  0  0  0  0  0  0  0  0  0
    8.0352   -6.9355    0.0000 C    0  0  0  0  0  0  0  0  0  0  0  0
    7.2390   -6.4758    0.0000 C    0  0  0  0  0  0  0  0  0  0  0  0
    4.3908   -6.8123    0.0000 C    0  0  0  0  0  0  0  0  0  0  0  0
    3.4714   -6.8123    0.0000 C    0  0  0  0  0  0  0  0  0  0  0  0
    3.0117   -7.6085    0.0000 C    0  0  0  0  0  0  0  0  0  0  0  0
    3.4714   -8.4047    0.0000 C    0  0  0  0  0  0  0  0  0  0  0  0
    4.3908   -8.4047    0.0000 C    0  0  0  0  0  0  0  0  0  0  0  0
    4.8504   -7.6085    0.0000 C    0  0  0  0  0  0  0  0  0  0  0  0
    3.2581   -6.0161    0.0000 C    0  0  0  0  0  0  0  0  0  0  0  0
    2.4619   -5.5565    0.0000 C    0  0  0  0  0  0  0  0  0  0  0  0
    2.4619   -4.6371    0.0000 C    0  0  0  0  0  0  0  0  0  0  0  0
    1.6657   -4.1774    0.0000 C    0  0  0  0  0  0  0  0  0  0  0  0
  2 51  2  0  0  0  0
  2  3  1  0  0  0  0
  3  4  2  0  0  0  0
  4  5  1  0  0  0  0
  5 50  2  0  0  0  0
  5  6  1  0  0  0  0
  6  7  1  0  0  0  0
  6 27  2  0  0  0  0
  7 26  2  0  0  0  0
  7  8  1  0  0  0  0
  8  9  1  0  0  0  0
  8 19  2  0  0  0  0
  9 10  1  0  0  0  0
 10 11  2  0  0  0  0
 10 12  2  0  0  0  0
 10 13  1  0  0  0  0
 13 18  2  0  0  0  0
 13 14  1  0  0  0  0
 14 15  2  0  0  0  0
 15 16  1  0  0  0  0
 16 17  2  0  0  0  0
 17 18  1  0  0  0  0
 19 20  1  0  0  0  0
 20 21  2  0  0  0  0
 21 26  1  0  0  0  0
 21 22  1  0  0  0  0
 22 23  2  0  0  0  0
 23 24  1  0  0  0  0
 24 25  2  0  0  0  0
 25 26  1  0  0  0  0
 27 28  1  0  0  0  0
 27 48  1  0  0  0  0
 28 29  1  0  0  0  0
 28 36  1  0  0  0  0
 28 42  1  0  0  0  0
 29 30  1  0  0  0  0
 30 35  2  0  0  0  0
 30 31  1  0  0  0  0
 31 32  2  0  0  0  0
 32 33  1  0  0  0  0
 33 34  2  0  0  0  0
 34 35  1  0  0  0  0
 36 41  2  0  0  0  0
 36 37  1  0  0  0  0
 37 38  2  0  0  0  0
 38 39  1  0  0  0  0
 39 40  2  0  0  0  0
 40 41  1  0  0  0  0
 42 47  2  0  0  0  0
 42 43  1  0  0  0  0
 43 44  2  0  0  0  0
 44 45  1  0  0  0  0
 45 46  2  0  0  0  0
 46 47  1  0  0  0  0
 48 49  2  0  0  0  0
 49 50  1  0  0  0  0
 50 51  1  0  0  0  0
M  END
> <NMREDATA_VERSION>
1.1

> <NMREDATA_LEVEL>
0

> <NMREDATA_SOLVENT>
CDCl3

> <NMREDATA_FORMULA>
C45H35BrNO2PS

> <NMREDATA_SMILES>
O=S(=O)(c1ccccc1)Nc1ccc2c(c1c1c3ccccc3ccc1P(c1ccccc1)(c1ccccc1)Cc1ccccc1)cccc2.Br

> <NMREDATA_ASSIGNMENT>
P28, 24.20, 28

> <NMREDATA_1D_31P>
Larmor=200
24.20, L=P28

$$$$
