
 OpenBabel06112616472D

 40 46  0  0  0  0  0  0  0  0999 V2000
   -1.3577    4.7233    0.0000 C   0  0  0  0  0  0  0  0  0  0  0  0
   -2.1008    4.0541    0.0000 O   0  0  0  0  0  0  0  0  0  0  0  0
   -1.8929    3.0760    0.0000 C   0  0  0  0  0  0  0  0  0  0  0  0
   -2.6360    2.4068    0.0000 C   0  0  0  0  0  0  0  0  0  0  0  0
   -2.4281    1.4287    0.0000 C   0  0  0  0  0  0  0  0  0  0  0  0
   -1.4771    1.1197    0.0000 C   0  0  0  0  0  0  0  0  0  0  0  0
   -1.2692    0.1415    0.0000 C   0  0  0  0  0  0  0  0  0  0  0  0
   -2.0123   -0.5276    0.0000 C   0  0  0  0  0  0  0  0  0  0  0  0
   -1.8044   -1.5057    0.0000 C   0  0  0  0  0  0  0  0  0  0  0  0
   -0.8533   -1.8148    0.0000 C   0  0  0  0  0  0  0  0  0  0  0  0
   -0.4466   -2.7283    0.0000 C   0  0  0  0  0  0  0  0  0  0  0  0
   -0.8533   -3.6419    0.0000 C   0  0  0  0  0  0  0  0  0  0  0  0
   -0.2656   -4.4509    0.0000 C   0  0  0  0  0  0  0  0  0  0  0  0
    0.7290   -4.3463    0.0000 C   0  0  0  0  0  0  0  0  0  0  0  0
    1.1357   -3.4328    0.0000 C   0  0  0  0  0  0  0  0  0  0  0  0
    0.5479   -2.6238    0.0000 C   0  0  0  0  0  0  0  0  0  0  0  0
    0.7558   -1.6456    0.0000 N   0  0  0  0  0  0  0  0  0  0  0  0
   -0.8660   -1.5000    0.0000 C   0  0  0  0  0  0  0  0  0  0  0  0
   -0.8660   -2.5000    0.0000 C   0  0  0  0  0  0  0  0  0  0  0  0
   -1.7321   -3.0000    0.0000 C   0  0  0  0  0  0  0  0  0  0  0  0
   -2.5981   -2.5000    0.0000 C   0  0  0  0  0  0  0  0  0  0  0  0
   -2.5981   -1.5000    0.0000 C   0  0  0  0  0  0  0  0  0  0  0  0
   -1.7321   -1.0000    0.0000 C   0  0  0  0  0  0  0  0  0  0  0  0
   -1.7321    0.0000    0.0000 P   0  0  0  0  0  0  0  0  0  0  0  0
   -0.8660    0.5000    0.0000 C   0  0  0  0  0  0  0  0  0  0  0  0
   -0.8660    1.5000    0.0000 C   0  0  0  0  0  0  0  0  0  0  0  0
    0.0000    2.0000    0.0000 C   0  0  0  0  0  0  0  0  0  0  0  0
    0.8660    1.5000    0.0000 C   0  0  0  0  0  0  0  0  0  0  0  0
    0.8660    0.5000    0.0000 C   0  0  0  0  0  0  0  0  0  0  0  0
    0.0000    0.0000    0.0000 C   0  0  0  0  0  0  0  0  0  0  0  0
   -2.5981    0.5000    0.0000 C   0  0  0  0  0  0  0  0  0  0  0  0
   -3.4071   -0.0878    0.0000 C   0  0  0  0  0  0  0  0  0  0  0  0
   -4.3206    0.3190    0.0000 C   0  0  0  0  0  0  0  0  0  0  0  0
   -4.4252    1.3135    0.0000 C   0  0  0  0  0  0  0  0  0  0  0  0
   -3.6162    1.9013    0.0000 C   0  0  0  0  0  0  0  0  0  0  0  0
   -2.7026    1.4945    0.0000 C   0  0  0  0  0  0  0  0  0  0  0  0
   -0.1102   -1.1456    0.0000 C   0  0  0  0  0  0  0  0  0  0  0  0
   -0.3181   -0.1675    0.0000 C   0  0  0  0  0  0  0  0  0  0  0  0
   -0.7339    1.7888    0.0000 C   0  0  0  0  0  0  0  0  0  0  0  0
   -0.9418    2.7670    0.0000 C   0  0  0  0  0  0  0  0  0  0  0  0
  1  2  1  0  0  0  0
  2  3  1  0  0  0  0
  3 40  2  0  0  0  0
  3  4  1  0  0  0  0
  4  5  2  0  0  0  0
  5  6  1  0  0  0  0
  6  7  1  0  0  0  0
  6 39  2  0  0  0  0
  7 38  2  0  0  0  0
  7  8  1  0  0  0  0
  8  9  2  0  0  0  0
  9 10  1  0  0  0  0
 10 37  2  0  0  0  0
 10 11  1  0  0  0  0
 11 16  2  0  0  0  0
 11 12  1  0  0  0  0
 12 13  2  0  0  0  0
 13 14  1  0  0  0  0
 14 15  2  0  0  0  0
 15 16  1  0  0  0  0
 16 17  1  0  0  0  0
 17 18  1  0  0  0  0
 17 37  1  0  0  0  0
 18 23  2  0  0  0  0
 18 19  1  0  0  0  0
 19 20  2  0  0  0  0
 20 21  1  0  0  0  0
 21 22  2  0  0  0  0
 22 23  1  0  0  0  0
 23 24  1  0  0  0  0
 24 25  1  0  0  0  0
 24 31  1  0  0  0  0
 25 30  2  0  0  0  0
 25 26  1  0  0  0  0
 26 27  2  0  0  0  0
 27 28  1  0  0  0  0
 28 29  2  0  0  0  0
 29 30  1  0  0  0  0
 31 36  2  0  0  0  0
 31 32  1  0  0  0  0
 32 33  2  0  0  0  0
 33 34  1  0  0  0  0
 34 35  2  0  0  0  0
 35 36  1  0  0  0  0
 37 38  1  0  0  0  0
 39 40  1  0  0  0  0
M  END
> <NMREDATA_VERSION>
1.1

> <NMREDATA_LEVEL>
0

> <NMREDATA_SOLVENT>
CD2Cl2

> <NMREDATA_FORMULA>
C37H28NOP

> <NMREDATA_SMILES>
COc1ccc(cc1)c1ccc2c(c1)n(c1ccccc1P(c1ccccc1)c1ccccc1)c1c2cccc1

> <NMREDATA_ASSIGNMENT>
P24, -17.41, 24

> <NMREDATA_1D_31P>
Larmor=162
-17.41, L=P24

$$$$
