
 OpenBabel06112616432D

 16 17  0  0  0  0  0  0  0  0999 V2000
    1.8171   -2.8090    0.0000 C    0  0  0  0  0  0  0  0  0  0  0  0
    1.8171   -1.8090    0.0000 C    0  0  0  0  0  0  0  0  0  0  0  0
    2.6831   -1.3090    0.0000 C    0  0  0  0  0  0  0  0  0  0  0  0
    2.6831   -0.3090    0.0000 C    0  0  0  0  0  0  0  0  0  0  0  0
    3.5491    0.1910    0.0000 Br   0  0  0  0  0  0  0  0  0  0  0  0
    1.8171    0.1910    0.0000 C    0  0  0  0  0  0  0  0  0  0  0  0
    0.9511   -0.3090    0.0000 C    0  0  0  0  0  0  0  0  0  0  0  0
    0.9511   -1.3090    0.0000 C    0  0  0  0  0  0  0  0  0  0  0  0
    0.0000   -1.6180    0.0000 P    0  0  3  0  0  0  0  0  0  0  0  0
   -0.7431   -2.2872    0.0000 O    0  0  0  0  0  0  0  0  0  0  0  0
    0.2079   -2.5962    0.0000 O    0  0  0  0  0  0  0  0  0  0  0  0
   -0.5352   -3.2653    0.0000 C    0  0  0  0  0  0  0  0  0  0  0  0
   -1.4863   -2.9563    0.0000 C    0  0  0  0  0  0  0  0  0  0  0  0
   -0.5878   -0.8090    0.0000 N    0  0  0  0  0  0  0  0  0  0  0  0
    0.0000    0.0000    0.0000 C    0  0  0  0  0  0  0  0  0  0  0  0
   -0.3090    0.9511    0.0000 O    0  0  0  0  0  0  0  0  0  0  0  0
  1  2  1  0  0  0  0
  2  8  2  0  0  0  0
  2  3  1  0  0  0  0
  3  4  2  0  0  0  0
  4  5  1  0  0  0  0
  4  6  1  0  0  0  0
  6  7  2  0  0  0  0
  7 15  1  0  0  0  0
  7  8  1  0  0  0  0
  8  9  1  0  0  0  0
  9 10  2  0  0  0  0
  9 11  1  0  0  0  0
  9 14  1  0  0  0  0
 11 12  1  0  0  0  0
 12 13  1  0  0  0  0
 14 15  1  0  0  0  0
 15 16  2  0  0  0  0
M  END
> <NMREDATA_VERSION>
1.1

> <NMREDATA_LEVEL>
0

> <NMREDATA_SOLVENT>
CDCl3

> <NMREDATA_FORMULA>
C10H11BrNO3P

> <NMREDATA_SMILES>
CCOP1(=O)NC(=O)c2c1c(C)cc(c2)Br

> <NMREDATA_ASSIGNMENT>
P9, 19.90, 9

> <NMREDATA_1D_31P>
Larmor=161
19.90, L=P9

$$$$
