
 OpenBabel06112616442D

 30 33  0  0  0  0  0  0  0  0999 V2000
    0.8406   -2.4265    0.0000 C   0  0  0  0  0  0  0  0  0  0  0  0
    0.8406   -1.4559    0.0000 O   0  0  0  0  0  0  0  0  0  0  0  0
    0.0000   -0.9706    0.0000 C   0  0  0  0  0  0  0  0  0  0  0  0
   -0.8406   -1.4559    0.0000 C   0  0  0  0  0  0  0  0  0  0  0  0
   -1.6811   -0.9706    0.0000 C   0  0  0  0  0  0  0  0  0  0  0  0
   -1.6811    0.0000    0.0000 C   0  0  0  0  0  0  0  0  0  0  0  0
   -2.5217    0.4853    0.0000 S   0  0  0  0  0  0  0  0  0  0  0  0
   -3.3622    0.0000    0.0000 C   0  0  0  0  0  0  0  0  0  0  0  0
   -4.2028    0.4853    0.0000 O   0  0  0  0  0  0  0  0  0  0  0  0
   -3.3622   -0.9706    0.0000 C   0  0  0  0  0  0  0  0  0  0  0  0
   -2.5217   -1.4559    0.0000 C   0  0  0  0  0  0  0  0  0  0  0  0
   -2.5217   -2.4265    0.0000 C   0  0  0  0  0  0  0  0  0  0  0  0
   -3.3622   -2.9118    0.0000 C   0  0  0  0  0  0  0  0  0  0  0  0
   -4.2028   -2.4265    0.0000 C   0  0  0  0  0  0  0  0  0  0  0  0
   -4.2028   -1.4559    0.0000 C   0  0  0  0  0  0  0  0  0  0  0  0
   -5.8839   -0.4853    0.0000 P   0  0  0  0  0  0  0  0  0  0  0  0
   -5.8839    0.4853    0.0000 C   0  0  0  0  0  0  0  0  0  0  0  0
   -6.7244    0.9706    0.0000 C   0  0  0  0  0  0  0  0  0  0  0  0
   -6.7244    1.9412    0.0000 C   0  0  0  0  0  0  0  0  0  0  0  0
   -5.8839    2.4265    0.0000 C   0  0  0  0  0  0  0  0  0  0  0  0
   -5.0433    1.9412    0.0000 C   0  0  0  0  0  0  0  0  0  0  0  0
   -5.0433    0.9706    0.0000 C   0  0  0  0  0  0  0  0  0  0  0  0
   -6.7244   -0.9706    0.0000 C   0  0  0  0  0  0  0  0  0  0  0  0
   -6.7244   -1.9412    0.0000 C   0  0  0  0  0  0  0  0  0  0  0  0
   -7.5650   -2.4265    0.0000 C   0  0  0  0  0  0  0  0  0  0  0  0
   -8.4055   -1.9412    0.0000 C   0  0  0  0  0  0  0  0  0  0  0  0
   -8.4055   -0.9706    0.0000 C   0  0  0  0  0  0  0  0  0  0  0  0
   -7.5650   -0.4853    0.0000 C   0  0  0  0  0  0  0  0  0  0  0  0
   -0.8406    0.4853    0.0000 C   0  0  0  0  0  0  0  0  0  0  0  0
    0.0000    0.0000    0.0000 C   0  0  0  0  0  0  0  0  0  0  0  0
  1  2  1  0  0  0  0
  2  3  1  0  0  0  0
  3 30  2  0  0  0  0
  3  4  1  0  0  0  0
  4  5  2  0  0  0  0
  5  6  1  0  0  0  0
  6  7  1  0  0  0  0
  6 29  2  0  0  0  0
  7  8  1  0  0  0  0
  8  9  2  0  0  0  0
  8 10  1  0  0  0  0
 10 15  2  0  0  0  0
 10 11  1  0  0  0  0
 11 12  2  0  0  0  0
 12 13  1  0  0  0  0
 13 14  2  0  0  0  0
 14 15  1  0  0  0  0
 15 16  1  0  0  0  0
 16 17  1  0  0  0  0
 16 23  1  0  0  0  0
 17 22  2  0  0  0  0
 17 18  1  0  0  0  0
 18 19  2  0  0  0  0
 19 20  1  0  0  0  0
 20 21  2  0  0  0  0
 21 22  1  0  0  0  0
 23 28  2  0  0  0  0
 23 24  1  0  0  0  0
 24 25  2  0  0  0  0
 25 26  1  0  0  0  0
 26 27  2  0  0  0  0
 27 28  1  0  0  0  0
 29 30  1  0  0  0  0
M  END
> <NMREDATA_VERSION>
1.1

> <NMREDATA_LEVEL>
0

> <NMREDATA_SOLVENT>
CDCl3

> <NMREDATA_FORMULA>
C26H21O2PS

> <NMREDATA_SMILES>
COc1ccc(cc1)SC(=O)c1ccccc1P(c1ccccc1)c1ccccc1

> <NMREDATA_ASSIGNMENT>
P16, -4.85, 16

> <NMREDATA_1D_31P>
Larmor=121
-4.85, L=P16

$$$$
