
 OpenBabel06112616492D

 36 39  0  0  0  0  0  0  0  0999 V2000
   -0.7137    2.9250    0.0000 C    0  0  0  0  0  0  0  0  0  0  0  0
    0.1306    2.4375    0.0000 C    0  0  0  0  0  0  0  0  0  0  0  0
    0.9750    2.9250    0.0000 C    0  0  0  0  0  0  0  0  0  0  0  0
    1.8194    2.4375    0.0000 C    0  0  0  0  0  0  0  0  0  0  0  0
    1.8194    1.4625    0.0000 C    0  0  0  0  0  0  0  0  0  0  0  0
    2.6637    0.9750    0.0000 C    0  0  0  0  0  0  0  0  0  0  0  0
    2.6637    0.0000    0.0000 C    0  0  0  0  0  0  0  0  0  0  0  0
    3.5081   -0.4875    0.0000 C    0  0  0  0  0  0  0  0  0  0  0  0
    4.3525    0.0000    0.0000 C    0  0  0  0  0  0  0  0  0  0  0  0
    4.3525    0.9750    0.0000 C    0  0  0  0  0  0  0  0  0  0  0  0
    3.5081    1.4625    0.0000 C    0  0  0  0  0  0  0  0  0  0  0  0
    3.5081    3.4125    0.0000 P    0  0  0  0  0  0  0  0  0  0  0  0
    2.6637    3.9000    0.0000 C    0  0  0  0  0  0  0  0  0  0  0  0
    2.6637    4.8750    0.0000 C    0  0  0  0  0  0  0  0  0  0  0  0
    1.8194    5.3625    0.0000 C    0  0  0  0  0  0  0  0  0  0  0  0
    0.9750    4.8750    0.0000 C    0  0  0  0  0  0  0  0  0  0  0  0
    0.9750    3.9000    0.0000 C    0  0  0  0  0  0  0  0  0  0  0  0
    1.8194    3.4125    0.0000 C    0  0  0  0  0  0  0  0  0  0  0  0
    4.3525    3.9000    0.0000 C    0  0  0  0  0  0  0  0  0  0  0  0
    5.1969    3.4125    0.0000 C    0  0  0  0  0  0  0  0  0  0  0  0
    6.0412    3.9000    0.0000 C    0  0  0  0  0  0  0  0  0  0  0  0
    6.0412    4.8750    0.0000 C    0  0  0  0  0  0  0  0  0  0  0  0
    5.1969    5.3625    0.0000 C    0  0  0  0  0  0  0  0  0  0  0  0
    4.3525    4.8750    0.0000 C    0  0  0  0  0  0  0  0  0  0  0  0
    0.9750    0.9750    0.0000 C    0  0  0  0  0  0  0  0  0  0  0  0
    0.9750    0.0000    0.0000 Si   0  0  0  0  0  0  0  0  0  0  0  0
    1.9500    0.0000    0.0000 C    0  0  0  0  0  0  0  0  0  0  0  0
    2.4375   -0.8444    0.0000 C    0  0  0  0  0  0  0  0  0  0  0  0
    0.9750   -0.9750    0.0000 C    0  0  0  0  0  0  0  0  0  0  0  0
    1.8194   -1.4625    0.0000 C    0  0  0  0  0  0  0  0  0  0  0  0
    0.0000    0.0000    0.0000 C    0  0  0  0  0  0  0  0  0  0  0  0
   -0.4875    0.8444    0.0000 C    0  0  0  0  0  0  0  0  0  0  0  0
    0.1306    1.4625    0.0000 C    0  0  0  0  0  0  0  0  0  0  0  0
   -0.7137    3.9000    0.0000 O    0  0  0  0  0  0  0  0  0  0  0  0
    0.1306    4.3875    0.0000 C    0  0  0  0  0  0  0  0  0  0  0  0
   -1.5581    2.4375    0.0000 O    0  0  0  0  0  0  0  0  0  0  0  0
  1  2  1  0  0  0  0
  1 34  1  0  0  0  0
  1 36  2  0  0  0  0
  2 33  2  0  0  0  0
  2  3  1  0  0  0  0
  3  4  2  0  0  0  0
  4  5  1  0  0  0  0
  5  6  1  0  0  0  0
  5 25  2  0  0  0  0
  6 11  2  0  0  0  0
  6  7  1  0  0  0  0
  7  8  2  0  0  0  0
  8  9  1  0  0  0  0
  9 10  2  0  0  0  0
 10 11  1  0  0  0  0
 11 12  1  0  0  0  0
 12 13  1  0  0  0  0
 12 19  1  0  0  0  0
 13 18  2  0  0  0  0
 13 14  1  0  0  0  0
 14 15  2  0  0  0  0
 15 16  1  0  0  0  0
 16 17  2  0  0  0  0
 17 18  1  0  0  0  0
 19 24  2  0  0  0  0
 19 20  1  0  0  0  0
 20 21  2  0  0  0  0
 21 22  1  0  0  0  0
 22 23  2  0  0  0  0
 23 24  1  0  0  0  0
 25 26  1  0  0  0  0
 25 33  1  0  0  0  0
 26 27  1  0  0  0  0
 26 29  1  0  0  0  0
 26 31  1  0  0  0  0
 27 28  1  0  0  0  0
 29 30  1  0  0  0  0
 31 32  1  0  0  0  0
 34 35  1  0  0  0  0
M  END
> <NMREDATA_VERSION>
1.1

> <NMREDATA_LEVEL>
0

> <NMREDATA_SOLVENT>
CDCl3

> <NMREDATA_FORMULA>
C32H35O2PSi

> <NMREDATA_SMILES>
COC(=O)c1ccc(c(c1)[Si](CC)(CC)CC)c1ccccc1P(c1ccccc1)c1ccccc1

> <NMREDATA_ASSIGNMENT>
P12, -15.40, 12

> <NMREDATA_1D_31P>
Larmor=162
-15.40, L=P12

$$$$
