
 OpenBabel06112616492D

 57 60  0  0  1  0  0  0  0  0999 V2000
   13.2772   -0.5000    0.0000 Br   0  5  0  0  0  0  0  0  0  0  0  0
    6.2143   -2.1496    0.0000 C    0  0  0  0  0  0  0  0  0  0  0  0
    5.7381   -2.9744    0.0000 C    0  0  0  0  0  0  0  0  0  0  0  0
    6.2143   -3.7991    0.0000 C    0  0  2  0  0  0  0  0  0  0  0  0
    4.3095   -7.0983    0.0000 C    0  0  0  0  0  0  0  0  0  0  0  0
    3.3571   -7.0983    0.0000 P    0  3  0  0  0  0  0  0  0  0  0  0
    3.3571   -8.0507    0.0000 C    0  0  0  0  0  0  0  0  0  0  0  0
    4.1819   -8.5269    0.0000 C    0  0  0  0  0  0  0  0  0  0  0  0
    4.1819   -9.4792    0.0000 C    0  0  0  0  0  0  0  0  0  0  0  0
    5.0067   -9.9554    0.0000 C    0  0  0  0  0  0  0  0  0  0  0  0
    5.0067  -10.9078    0.0000 C    0  0  0  0  0  0  0  0  0  0  0  0
    4.5305  -11.7326    0.0000 F    0  0  0  0  0  0  0  0  0  0  0  0
    4.0543  -10.9078    0.0000 F    0  0  0  0  0  0  0  0  0  0  0  0
    5.8315  -11.3840    0.0000 F    0  0  0  0  0  0  0  0  0  0  0  0
    5.8315   -9.4792    0.0000 C    0  0  0  0  0  0  0  0  0  0  0  0
    5.8315   -8.5269    0.0000 C    0  0  0  0  0  0  0  0  0  0  0  0
    6.6563   -8.0507    0.0000 C    0  0  0  0  0  0  0  0  0  0  0  0
    7.6087   -8.0507    0.0000 F    0  0  0  0  0  0  0  0  0  0  0  0
    7.1325   -8.8755    0.0000 F    0  0  0  0  0  0  0  0  0  0  0  0
    6.6563   -7.0983    0.0000 F    0  0  0  0  0  0  0  0  0  0  0  0
    5.0067   -8.0507    0.0000 C    0  0  0  0  0  0  0  0  0  0  0  0
    2.4048   -7.0983    0.0000 C    0  0  0  0  0  0  0  0  0  0  0  0
    1.9286   -6.2735    0.0000 C    0  0  0  0  0  0  0  0  0  0  0  0
    0.9762   -6.2735    0.0000 C    0  0  0  0  0  0  0  0  0  0  0  0
    0.5000   -7.0983    0.0000 C    0  0  0  0  0  0  0  0  0  0  0  0
    0.9762   -7.9231    0.0000 C    0  0  0  0  0  0  0  0  0  0  0  0
    1.9286   -7.9231    0.0000 C    0  0  0  0  0  0  0  0  0  0  0  0
    3.3571   -6.1459    0.0000 C    0  0  0  0  0  0  0  0  0  0  0  0
    4.1819   -5.6697    0.0000 C    0  0  0  0  0  0  0  0  0  0  0  0
    4.1819   -4.7173    0.0000 C    0  0  0  0  0  0  0  0  0  0  0  0
    3.3571   -4.2411    0.0000 C    0  0  0  0  0  0  0  0  0  0  0  0
    2.5324   -4.7173    0.0000 C    0  0  0  0  0  0  0  0  0  0  0  0
    2.5324   -5.6697    0.0000 C    0  0  0  0  0  0  0  0  0  0  0  0
    7.1667   -3.7991    0.0000 N    0  0  0  0  0  0  0  0  0  0  0  0
    7.6429   -2.9744    0.0000 C    0  0  0  0  0  0  0  0  0  0  0  0
    7.6429   -4.6239    0.0000 C    0  0  0  0  0  0  0  0  0  0  0  0
    7.1667   -5.4487    0.0000 O    0  0  0  0  0  0  0  0  0  0  0  0
    8.5952   -4.6239    0.0000 N    0  0  0  0  0  0  0  0  0  0  0  0
    9.0714   -3.7991    0.0000 C    0  0  0  0  0  0  0  0  0  0  0  0
    8.5952   -2.9744    0.0000 C    0  0  0  0  0  0  0  0  0  0  0  0
    9.0714   -2.1496    0.0000 C    0  0  0  0  0  0  0  0  0  0  0  0
    8.5952   -1.3248    0.0000 C    0  0  0  0  0  0  0  0  0  0  0  0
    7.7705   -0.8486    0.0000 F    0  0  0  0  0  0  0  0  0  0  0  0
    7.7705   -1.8010    0.0000 F    0  0  0  0  0  0  0  0  0  0  0  0
    9.0714   -0.5000    0.0000 F    0  0  0  0  0  0  0  0  0  0  0  0
   10.0238   -2.1496    0.0000 C    0  0  0  0  0  0  0  0  0  0  0  0
   10.5000   -2.9744    0.0000 C    0  0  0  0  0  0  0  0  0  0  0  0
   11.4524   -2.9744    0.0000 C    0  0  0  0  0  0  0  0  0  0  0  0
   12.2772   -2.4982    0.0000 F    0  0  0  0  0  0  0  0  0  0  0  0
   11.4524   -2.0220    0.0000 F    0  0  0  0  0  0  0  0  0  0  0  0
   11.9286   -3.7991    0.0000 F    0  0  0  0  0  0  0  0  0  0  0  0
   10.0238   -3.7991    0.0000 C    0  0  0  0  0  0  0  0  0  0  0  0
    5.7381   -1.3248    0.0000 C    0  0  0  0  0  0  0  0  0  0  0  0
    6.2143   -0.5000    0.0000 C    0  0  0  0  0  0  0  0  0  0  0  0
    7.1667   -0.5000    0.0000 C    0  0  0  0  0  0  0  0  0  0  0  0
    7.6429   -1.3248    0.0000 C    0  0  0  0  0  0  0  0  0  0  0  0
    7.1667   -2.1496    0.0000 C    0  0  0  0  0  0  0  0  0  0  0  0
  2 57  2  0  0  0  0
  2  3  1  0  0  0  0
  2 53  1  0  0  0  0
  4  3  1  1  0  0  0
  4  5  1  0  0  0  0
  4 34  1  0  0  0  0
  5  6  1  0  0  0  0
  6  7  1  0  0  0  0
  6 22  1  0  0  0  0
  6 28  1  0  0  0  0
  7  8  1  0  0  0  0
  8 21  2  0  0  0  0
  8  9  1  0  0  0  0
  9 10  2  0  0  0  0
 10 11  1  0  0  0  0
 10 15  1  0  0  0  0
 11 12  1  0  0  0  0
 11 13  1  0  0  0  0
 11 14  1  0  0  0  0
 15 16  2  0  0  0  0
 16 17  1  0  0  0  0
 16 21  1  0  0  0  0
 17 18  1  0  0  0  0
 17 19  1  0  0  0  0
 17 20  1  0  0  0  0
 22 27  2  0  0  0  0
 22 23  1  0  0  0  0
 23 24  2  0  0  0  0
 24 25  1  0  0  0  0
 25 26  2  0  0  0  0
 26 27  1  0  0  0  0
 28 33  2  0  0  0  0
 28 29  1  0  0  0  0
 29 30  2  0  0  0  0
 30 31  1  0  0  0  0
 31 32  2  0  0  0  0
 32 33  1  0  0  0  0
 34 35  1  0  0  0  0
 34 36  1  0  0  0  0
 36 37  2  0  0  0  0
 36 38  1  0  0  0  0
 38 39  1  0  0  0  0
 39 52  2  0  0  0  0
 39 40  1  0  0  0  0
 40 41  2  0  0  0  0
 41 42  1  0  0  0  0
 41 46  1  0  0  0  0
 42 43  1  0  0  0  0
 42 44  1  0  0  0  0
 42 45  1  0  0  0  0
 46 47  2  0  0  0  0
 47 48  1  0  0  0  0
 47 52  1  0  0  0  0
 48 49  1  0  0  0  0
 48 50  1  0  0  0  0
 48 51  1  0  0  0  0
 53 54  2  0  0  0  0
 54 55  1  0  0  0  0
 55 56  2  0  0  0  0
 56 57  1  0  0  0  0
M  END
> <NMREDATA_VERSION>
1.1

> <NMREDATA_LEVEL>
0

> <NMREDATA_SOLVENT>
CDCl3

> <NMREDATA_FORMULA>
C40H32BrF12N2OP

> <NMREDATA_SMILES>
O=C(N([C@@H](CP(c1ccccc1)(c1ccccc1)Cc1cc(cc(c1)C(F)(F)F)C(F)(F)F)Cc1ccccc1)C)Nc1cc(cc(c1)C(F)(F)F)C(F)(F)F.Br

> <NMREDATA_ASSIGNMENT>
P6, 24.90, 6

> <NMREDATA_1D_31P>
Larmor=162
24.90, L=P6

$$$$
