
 OpenBabel06112616462D

 24 24  0  0  0  0  0  0  0  0999 V2000
    9.0000   -0.5000    0.0000 Br   0  5  0  0  0  0  0  0  0  0  0  0
    1.0000   -3.7321    0.0000 C    0  0  0  0  0  0  0  0  0  0  0  0
    0.5000   -2.8660    0.0000 C    0  0  0  0  0  0  0  0  0  0  0  0
    1.0000   -2.0000    0.0000 C    0  0  0  0  0  0  0  0  0  0  0  0
    2.0000   -2.0000    0.0000 C    0  0  0  0  0  0  0  0  0  0  0  0
    2.5000   -1.1340    0.0000 C    0  0  0  0  0  0  0  0  0  0  0  0
    3.5000   -1.1340    0.0000 C    0  0  0  0  0  0  0  0  0  0  0  0
    4.0000   -2.0000    0.0000 C    0  0  0  0  0  0  0  0  0  0  0  0
    5.0000   -2.0000    0.0000 P    0  3  0  0  0  0  0  0  0  0  0  0
    5.0000   -3.0000    0.0000 C    0  0  0  0  0  0  0  0  0  0  0  0
    5.8660   -3.5000    0.0000 C    0  0  0  0  0  0  0  0  0  0  0  0
    5.8660   -4.5000    0.0000 C    0  0  0  0  0  0  0  0  0  0  0  0
    6.7321   -5.0000    0.0000 C    0  0  0  0  0  0  0  0  0  0  0  0
    6.0000   -2.0000    0.0000 C    0  0  0  0  0  0  0  0  0  0  0  0
    6.5000   -2.8660    0.0000 C    0  0  0  0  0  0  0  0  0  0  0  0
    7.5000   -2.8660    0.0000 C    0  0  0  0  0  0  0  0  0  0  0  0
    8.0000   -3.7321    0.0000 C    0  0  0  0  0  0  0  0  0  0  0  0
    5.0000   -1.0000    0.0000 C    0  0  0  0  0  0  0  0  0  0  0  0
    5.8660   -0.5000    0.0000 C    0  0  0  0  0  0  0  0  0  0  0  0
    6.7321   -1.0000    0.0000 C    0  0  0  0  0  0  0  0  0  0  0  0
    7.5981   -0.5000    0.0000 C    0  0  0  0  0  0  0  0  0  0  0  0
    3.5000   -2.8660    0.0000 N    0  0  0  0  0  0  0  0  0  0  0  0
    2.5000   -2.8660    0.0000 C    0  0  0  0  0  0  0  0  0  0  0  0
    2.0000   -3.7321    0.0000 C    0  0  0  0  0  0  0  0  0  0  0  0
  2 24  2  0  0  0  0
  2  3  1  0  0  0  0
  3  4  2  0  0  0  0
  4  5  1  0  0  0  0
  5 23  2  0  0  0  0
  5  6  1  0  0  0  0
  6  7  2  0  0  0  0
  7  8  1  0  0  0  0
  8  9  1  0  0  0  0
  8 22  2  0  0  0  0
  9 10  1  0  0  0  0
  9 14  1  0  0  0  0
  9 18  1  0  0  0  0
 10 11  1  0  0  0  0
 11 12  1  0  0  0  0
 12 13  1  0  0  0  0
 14 15  1  0  0  0  0
 15 16  1  0  0  0  0
 16 17  1  0  0  0  0
 18 19  1  0  0  0  0
 19 20  1  0  0  0  0
 20 21  1  0  0  0  0
 22 23  1  0  0  0  0
 23 24  1  0  0  0  0
M  END
> <NMREDATA_VERSION>
1.1

> <NMREDATA_LEVEL>
0

> <NMREDATA_SOLVENT>
CDCl3

> <NMREDATA_FORMULA>
C21H33BrNP

> <NMREDATA_SMILES>
CCCCP(c1ccc2c(n1)cccc2)(CCCC)CCCC.Br

> <NMREDATA_ASSIGNMENT>
P9, 31.33, 9

> <NMREDATA_1D_31P>
Larmor=162
31.33, L=P9

$$$$
