
 OpenBabel06112616492D

 28 30  0  0  1  0  0  0  0  0999 V2000
    -1.000     0.000     0.000 N   0  0  0  0  0  0  0  0  0  0  0  0
    -1.000    -1.000     0.000 C   0  0  2  0  0  0  0  0  0  0  0  0
    -2.000    -1.000     0.000 C   0  0  0  0  0  0  0  0  0  0  0  0
    -3.000    -1.000     0.000 C   0  0  0  0  0  0  0  0  0  0  0  0
    -4.000    -1.000     0.000 C   0  0  0  0  0  0  0  0  0  0  0  0
    -4.500    -1.866     0.000 C   0  0  0  0  0  0  0  0  0  0  0  0
    -5.500    -1.866     0.000 C   0  0  0  0  0  0  0  0  0  0  0  0
    -6.000    -1.000     0.000 C   0  0  0  0  0  0  0  0  0  0  0  0
    -5.500    -0.134     0.000 C   0  0  0  0  0  0  0  0  0  0  0  0
    -4.500    -0.134     0.000 C   0  0  0  0  0  0  0  0  0  0  0  0
    -1.000    -2.000     0.000 C   0  0  0  0  0  0  0  0  0  0  0  0
    -1.500    -2.866     0.000 F   0  0  0  0  0  0  0  0  0  0  0  0
    -2.000    -2.000     0.000 F   0  0  0  0  0  0  0  0  0  0  0  0
    -0.134    -2.500     0.000 F   0  0  0  0  0  0  0  0  0  0  0  0
     0.000    -1.000     0.000 P   0  0  0  0  0  0  0  0  0  0  0  0
     0.000    -2.000     0.000 O   0  0  0  0  0  0  0  0  0  0  0  0
     1.000    -1.000     0.000 C   0  0  0  0  0  0  0  0  0  0  0  0
     1.500    -0.134     0.000 C   0  0  0  0  0  0  0  0  0  0  0  0
     2.500    -0.134     0.000 C   0  0  0  0  0  0  0  0  0  0  0  0
     3.000    -1.000     0.000 C   0  0  0  0  0  0  0  0  0  0  0  0
     2.500    -1.866     0.000 C   0  0  0  0  0  0  0  0  0  0  0  0
     1.500    -1.866     0.000 C   0  0  0  0  0  0  0  0  0  0  0  0
     0.000     0.000     0.000 C   0  0  0  0  0  0  0  0  0  0  0  0
    -0.866     0.500     0.000 C   0  0  0  0  0  0  0  0  0  0  0  0
    -0.866     1.500     0.000 C   0  0  0  0  0  0  0  0  0  0  0  0
     0.000     2.000     0.000 C   0  0  0  0  0  0  0  0  0  0  0  0
     0.866     1.500     0.000 C   0  0  0  0  0  0  0  0  0  0  0  0
     0.866     0.500     0.000 C   0  0  0  0  0  0  0  0  0  0  0  0
  2  1  1  1  0  0  0
  2  3  1  0  0  0  0
  2 11  1  0  0  0  0
  2 15  1  0  0  0  0
  3  4  3  0  0  0  0
  4  5  1  0  0  0  0
  5 10  2  0  0  0  0
  5  6  1  0  0  0  0
  6  7  2  0  0  0  0
  7  8  1  0  0  0  0
  8  9  2  0  0  0  0
  9 10  1  0  0  0  0
 11 12  1  0  0  0  0
 11 13  1  0  0  0  0
 11 14  1  0  0  0  0
 15 16  2  0  0  0  0
 15 17  1  0  0  0  0
 15 23  1  0  0  0  0
 17 22  2  0  0  0  0
 17 18  1  0  0  0  0
 18 19  2  0  0  0  0
 19 20  1  0  0  0  0
 20 21  2  0  0  0  0
 21 22  1  0  0  0  0
 23 28  2  0  0  0  0
 23 24  1  0  0  0  0
 24 25  2  0  0  0  0
 25 26  1  0  0  0  0
 26 27  2  0  0  0  0
 27 28  1  0  0  0  0
M  END
> <NMREDATA_VERSION>
1.1

> <NMREDATA_LEVEL>
0

> <NMREDATA_SOLVENT>
CDCl3

> <NMREDATA_FORMULA>
C22H17F3NOP

> <NMREDATA_SMILES>
N[C@@](P(=O)(c1ccccc1)c1ccccc1)(C(F)(F)F)C#Cc1ccccc1

> <NMREDATA_ASSIGNMENT>
P15, 29.12, 15

> <NMREDATA_1D_31P>
Larmor=121
29.12, L=P15

$$$$
