
 OpenBabel06112616462D

 58 64  0  0  0  0  0  0  0  0999 V2000
   -3.7739   -2.9439    0.0000 C   0  0  0  0  0  0  0  0  0  0  0  0
   -2.8430   -3.3093    0.0000 C   0  0  0  0  0  0  0  0  0  0  0  0
   -2.0612   -2.6858    0.0000 C   0  0  0  0  0  0  0  0  0  0  0  0
   -2.2102   -1.6970    0.0000 N   0  3  0  0  0  0  0  0  0  0  0  0
   -1.4284   -1.0735    0.0000 O   0  0  0  0  0  0  0  0  0  0  0  0
   -3.1411   -1.3316    0.0000 O   0  5  0  0  0  0  0  0  0  0  0  0
   -1.1303   -3.0511    0.0000 C   0  0  0  0  0  0  0  0  0  0  0  0
   -0.9813   -4.0400    0.0000 C   0  0  0  0  0  0  0  0  0  0  0  0
   -0.0504   -4.4053    0.0000 C   0  0  0  0  0  0  0  0  0  0  0  0
    0.7314   -3.7818    0.0000 C   0  0  0  0  0  0  0  0  0  0  0  0
    1.6623   -4.1472    0.0000 C   0  0  0  0  0  0  0  0  0  0  0  0
    1.8114   -5.1360    0.0000 C   0  0  0  0  0  0  0  0  0  0  0  0
    1.0295   -5.7595    0.0000 C   0  0  0  0  0  0  0  0  0  0  0  0
    0.0986   -5.3941    0.0000 C   0  0  0  0  0  0  0  0  0  0  0  0
    1.1786   -6.7483    0.0000 C   0  0  0  0  0  0  0  0  0  0  0  0
    2.1094   -7.1136    0.0000 C   0  0  0  0  0  0  0  0  0  0  0  0
    2.8913   -6.4902    0.0000 C   0  0  0  0  0  0  0  0  0  0  0  0
    2.7422   -5.5013    0.0000 C   0  0  0  0  0  0  0  0  0  0  0  0
    2.5283   -3.6472    0.0000 C   0  0  0  0  0  0  0  0  0  0  0  0
    3.3102   -4.2706    0.0000 C   0  0  0  0  0  0  0  0  0  0  0  0
    4.2410   -3.9053    0.0000 C   0  0  0  0  0  0  0  0  0  0  0  0
    4.3901   -2.9165    0.0000 C   0  0  0  0  0  0  0  0  0  0  0  0
    3.6083   -2.2930    0.0000 C   0  0  0  0  0  0  0  0  0  0  0  0
    3.7573   -1.3041    0.0000 C   0  0  0  0  0  0  0  0  0  0  0  0
    2.9755   -0.6807    0.0000 C   0  0  0  0  0  0  0  0  0  0  0  0
    3.1245    0.3082    0.0000 C   0  0  0  0  0  0  0  0  0  0  0  0
    2.3427    0.9317    0.0000 N   0  3  0  0  0  0  0  0  0  0  0  0
    2.4917    1.9205    0.0000 O   0  0  0  0  0  0  0  0  0  0  0  0
    1.4118    0.5663    0.0000 O   0  5  0  0  0  0  0  0  0  0  0  0
    4.0554    0.6735    0.0000 C   0  0  0  0  0  0  0  0  0  0  0  0
    4.2044    1.6623    0.0000 C   0  0  0  0  0  0  0  0  0  0  0  0
    4.8372    0.0500    0.0000 C   0  0  0  0  0  0  0  0  0  0  0  0
    5.7681    0.4154    0.0000 N   0  3  0  0  0  0  0  0  0  0  0  0
    6.5499   -0.2081    0.0000 O   0  0  0  0  0  0  0  0  0  0  0  0
    5.9171    1.4042    0.0000 O   0  5  0  0  0  0  0  0  0  0  0  0
    4.6882   -0.9388    0.0000 C   0  0  0  0  0  0  0  0  0  0  0  0
    2.6774   -2.6583    0.0000 C   0  0  0  0  0  0  0  0  0  0  0  0
    1.9972   -1.9253    0.0000 O   0  0  0  0  0  0  0  0  0  0  0  0
    1.0000   -2.0000    0.0000 P   0  0  0  0  0  0  0  0  0  0  0  0
    1.0000   -1.0000    0.0000 N   0  0  0  0  0  0  0  0  0  0  0  0
    1.0000    0.0000    0.0000 S   0  0  0  0  0  0  0  0  0  0  0  0
    2.0000    0.0000    0.0000 O   0  0  0  0  0  0  0  0  0  0  0  0
    1.0000    1.0000    0.0000 O   0  0  0  0  0  0  0  0  0  0  0  0
    0.0000    0.0000    0.0000 C   0  0  0  0  0  0  0  0  0  0  0  0
   -0.8660   -0.5000    0.0000 F   0  0  0  0  0  0  0  0  0  0  0  0
    0.0000   -1.0000    0.0000 F   0  0  0  0  0  0  0  0  0  0  0  0
   -0.5000    0.8660    0.0000 F   0  0  0  0  0  0  0  0  0  0  0  0
    0.1340   -1.5000    0.0000 O   0  0  0  0  0  0  0  0  0  0  0  0
    0.4367   -2.8262    0.0000 O   0  0  0  0  0  0  0  0  0  0  0  0
    5.0229   -4.5288    0.0000 C   0  0  0  0  0  0  0  0  0  0  0  0
    4.8738   -5.5176    0.0000 C   0  0  0  0  0  0  0  0  0  0  0  0
    3.9430   -5.8830    0.0000 C   0  0  0  0  0  0  0  0  0  0  0  0
    3.1611   -5.2595    0.0000 C   0  0  0  0  0  0  0  0  0  0  0  0
   -1.7631   -4.6635    0.0000 C   0  0  0  0  0  0  0  0  0  0  0  0
   -2.6940   -4.2981    0.0000 C   0  0  0  0  0  0  0  0  0  0  0  0
   -3.4758   -4.9216    0.0000 N   0  3  0  0  0  0  0  0  0  0  0  0
   -4.4067   -4.5563    0.0000 O   0  0  0  0  0  0  0  0  0  0  0  0
   -3.3268   -5.9104    0.0000 O   0  5  0  0  0  0  0  0  0  0  0  0
  1  2  1  0  0  0  0
  2 55  2  0  0  0  0
  2  3  1  0  0  0  0
  3  4  1  0  0  0  0
  3  7  2  0  0  0  0
  4  5  2  0  0  0  0
  4  6  1  0  0  0  0
  7  8  1  0  0  0  0
  8  9  1  0  0  0  0
  8 54  2  0  0  0  0
  9 14  2  0  0  0  0
  9 10  1  0  0  0  0
 10 49  1  0  0  0  0
 10 11  2  0  0  0  0
 11 12  1  0  0  0  0
 11 19  1  0  0  0  0
 12 18  2  0  0  0  0
 12 13  1  0  0  0  0
 13 14  1  0  0  0  0
 13 15  2  0  0  0  0
 15 16  1  0  0  0  0
 16 17  2  0  0  0  0
 17 18  1  0  0  0  0
 19 37  2  0  0  0  0
 19 20  1  0  0  0  0
 20 53  2  0  0  0  0
 20 21  1  0  0  0  0
 21 22  1  0  0  0  0
 21 50  2  0  0  0  0
 22 23  2  0  0  0  0
 23 24  1  0  0  0  0
 23 37  1  0  0  0  0
 24 36  2  0  0  0  0
 24 25  1  0  0  0  0
 25 26  2  0  0  0  0
 26 27  1  0  0  0  0
 26 30  1  0  0  0  0
 27 28  2  0  0  0  0
 27 29  1  0  0  0  0
 30 31  1  0  0  0  0
 30 32  2  0  0  0  0
 32 33  1  0  0  0  0
 32 36  1  0  0  0  0
 33 34  2  0  0  0  0
 33 35  1  0  0  0  0
 37 38  1  0  0  0  0
 38 39  1  0  0  0  0
 39 40  1  0  0  0  0
 39 48  2  0  0  0  0
 39 49  1  0  0  0  0
 40 41  1  0  0  0  0
 41 42  2  0  0  0  0
 41 43  2  0  0  0  0
 41 44  1  0  0  0  0
 44 45  1  0  0  0  0
 44 46  1  0  0  0  0
 44 47  1  0  0  0  0
 50 51  1  0  0  0  0
 51 52  2  0  0  0  0
 52 53  1  0  0  0  0
 54 55  1  0  0  0  0
 55 56  1  0  0  0  0
 56 57  2  0  0  0  0
 56 58  1  0  0  0  0
M  END
> <NMREDATA_VERSION>
1.1

> <NMREDATA_LEVEL>
0

> <NMREDATA_SOLVENT>
CDCl3

> <NMREDATA_FORMULA>
C35H21F3N5O13PS

> <NMREDATA_SMILES>
[O-][N+](=O)c1cc(cc(c1C)[N+](=O)[O-])c1cc2ccccc2c2-c3c(OP(=O)(Oc12)NS(=O)(=O)C(F)(F)F)c(cc1c3cccc1)c1cc([N+](=O)[O-])c(c(c1)[N+](=O)[O-])C

> <NMREDATA_ASSIGNMENT>
P39, 1.27, 39

> <NMREDATA_1D_31P>
Larmor=162
1.27, L=P39

$$$$
