
 OpenBabel06112616472D

 17 17  0  0  0  0  0  0  0  0999 V2000
    1.2733   -1.6555    0.0000 C   0  0  0  0  0  0  0  0  0  0  0  0
    0.2788   -1.7601    0.0000 C   0  0  0  0  0  0  0  0  0  0  0  0
   -0.5302   -2.3479    0.0000 C   0  0  0  0  0  0  0  0  0  0  0  0
    0.3833   -2.7546    0.0000 C   0  0  0  0  0  0  0  0  0  0  0  0
   -0.3090   -0.9511    0.0000 N   0  0  0  0  0  0  0  0  0  0  0  0
   -1.3090   -0.9511    0.0000 P   0  0  3  0  0  0  0  0  0  0  0  0
   -1.8968   -1.7601    0.0000 C   0  0  0  0  0  0  0  0  0  0  0  0
   -2.0013   -2.7546    0.0000 C   0  0  0  0  0  0  0  0  0  0  0  0
   -1.0878   -2.3479    0.0000 C   0  0  0  0  0  0  0  0  0  0  0  0
   -2.8913   -1.6555    0.0000 C   0  0  0  0  0  0  0  0  0  0  0  0
   -1.6180    0.0000    0.0000 N   0  0  0  0  0  0  0  0  0  0  0  0
   -2.5691    0.3090    0.0000 C   0  0  0  0  0  0  0  0  0  0  0  0
   -3.5472    0.1011    0.0000 C   0  0  0  0  0  0  0  0  0  0  0  0
   -2.8781   -0.6420    0.0000 C   0  0  0  0  0  0  0  0  0  0  0  0
   -2.7770    1.2872    0.0000 C   0  0  0  0  0  0  0  0  0  0  0  0
   -0.8090    0.5878    0.0000 C   0  0  0  0  0  0  0  0  0  0  0  0
    0.0000    0.0000    0.0000 C   0  0  0  0  0  0  0  0  0  0  0  0
  1  2  1  0  0  0  0
  2  3  1  0  0  0  0
  2  4  1  0  0  0  0
  2  5  1  0  0  0  0
  5 17  1  0  0  0  0
  5  6  1  0  0  0  0
  6  7  1  0  0  0  0
  6 11  1  0  0  0  0
  7  8  1  0  0  0  0
  7  9  1  0  0  0  0
  7 10  1  0  0  0  0
 11 12  1  0  0  0  0
 11 16  1  0  0  0  0
 12 13  1  0  0  0  0
 12 14  1  0  0  0  0
 12 15  1  0  0  0  0
 16 17  2  0  0  0  0
M  END
> <NMREDATA_VERSION>
1.1

> <NMREDATA_LEVEL>
0

> <NMREDATA_SOLVENT>
CDCl3

> <NMREDATA_FORMULA>
C14H29N2P

> <NMREDATA_SMILES>
CC(P1N(C=CN1C(C)(C)C)C(C)(C)C)(C)C

> <NMREDATA_ASSIGNMENT>
P6, 98.51, 6

> <NMREDATA_1D_31P>
Larmor=162
98.51, L=P6

$$$$
