
 OpenBabel06112616462D

 40 44  0  0  1  0  0  0  0  0999 V2000
   -2.4836   -2.2253    0.0000 C   0  0  0  0  0  0  0  0  0  0  0  0
   -1.4890   -2.3298    0.0000 C   0  0  0  0  0  0  0  0  0  0  0  0
   -1.0823   -3.2433    0.0000 C   0  0  0  0  0  0  0  0  0  0  0  0
   -0.0878   -3.3479    0.0000 C   0  0  2  0  0  0  0  0  0  0  0  0
    0.3190   -4.2614    0.0000 C   0  0  0  0  0  0  0  0  0  0  0  0
    0.5000   -2.5388    0.0000 C   0  0  3  0  0  0  0  0  0  0  0  0
    0.1910   -1.5878    0.0000 C   0  0  0  0  0  0  0  0  0  0  0  0
    1.0000   -1.0000    0.0000 N   0  0  0  0  0  0  0  0  0  0  0  0
    1.0000    0.0000    0.0000 S   0  0  0  0  0  0  0  0  0  0  0  0
    2.0000    0.0000    0.0000 O   0  0  0  0  0  0  0  0  0  0  0  0
    1.0000    1.0000    0.0000 O   0  0  0  0  0  0  0  0  0  0  0  0
    0.0000    0.0000    0.0000 C   0  0  0  0  0  0  0  0  0  0  0  0
   -0.5000   -0.8660    0.0000 C   0  0  0  0  0  0  0  0  0  0  0  0
   -1.5000   -0.8660    0.0000 C   0  0  0  0  0  0  0  0  0  0  0  0
   -2.0000    0.0000    0.0000 C   0  0  0  0  0  0  0  0  0  0  0  0
   -3.0000    0.0000    0.0000 C   0  0  0  0  0  0  0  0  0  0  0  0
   -1.5000    0.8660    0.0000 C   0  0  0  0  0  0  0  0  0  0  0  0
   -0.5000    0.8660    0.0000 C   0  0  0  0  0  0  0  0  0  0  0  0
    1.8090   -1.5878    0.0000 C   0  0  0  0  0  0  0  0  0  0  0  0
    1.5000   -2.5388    0.0000 C   0  0  0  0  0  0  0  0  0  0  0  0
    2.0878   -3.3479    0.0000 C   0  0  0  0  0  0  0  0  0  0  0  0
    3.0823   -3.2433    0.0000 P   0  0  0  0  0  0  0  0  0  0  0  0
    2.9778   -2.2488    0.0000 O   0  0  0  0  0  0  0  0  0  0  0  0
    4.0768   -3.1388    0.0000 C   0  0  0  0  0  0  0  0  0  0  0  0
    4.6646   -3.9478    0.0000 C   0  0  0  0  0  0  0  0  0  0  0  0
    5.6591   -3.8433    0.0000 C   0  0  0  0  0  0  0  0  0  0  0  0
    6.0659   -2.9297    0.0000 C   0  0  0  0  0  0  0  0  0  0  0  0
    5.4781   -2.1207    0.0000 C   0  0  0  0  0  0  0  0  0  0  0  0
    4.4836   -2.2253    0.0000 C   0  0  0  0  0  0  0  0  0  0  0  0
    3.1868   -4.2379    0.0000 C   0  0  0  0  0  0  0  0  0  0  0  0
    2.3778   -4.8256    0.0000 C   0  0  0  0  0  0  0  0  0  0  0  0
    2.4823   -5.8202    0.0000 C   0  0  0  0  0  0  0  0  0  0  0  0
    3.3959   -6.2269    0.0000 C   0  0  0  0  0  0  0  0  0  0  0  0
    4.2049   -5.6391    0.0000 C   0  0  0  0  0  0  0  0  0  0  0  0
    4.1004   -4.6446    0.0000 C   0  0  0  0  0  0  0  0  0  0  0  0
   -3.0714   -3.0343    0.0000 C   0  0  0  0  0  0  0  0  0  0  0  0
   -4.0659   -2.9297    0.0000 C   0  0  0  0  0  0  0  0  0  0  0  0
   -4.4726   -2.0162    0.0000 C   0  0  0  0  0  0  0  0  0  0  0  0
   -3.8848   -1.2072    0.0000 C   0  0  0  0  0  0  0  0  0  0  0  0
   -2.8903   -1.3117    0.0000 C   0  0  0  0  0  0  0  0  0  0  0  0
  1 40  2  0  0  0  0
  1  2  1  0  0  0  0
  1 36  1  0  0  0  0
  2  3  1  0  0  0  0
  3  4  1  0  0  0  0
  4  5  1  1  0  0  0
  4  6  1  0  0  0  0
  6 20  1  0  0  0  0
  6  7  1  0  0  0  0
  7  8  1  0  0  0  0
  8  9  1  0  0  0  0
  8 19  1  0  0  0  0
  9 10  2  0  0  0  0
  9 11  2  0  0  0  0
  9 12  1  0  0  0  0
 12 18  2  0  0  0  0
 12 13  1  0  0  0  0
 13 14  2  0  0  0  0
 14 15  1  0  0  0  0
 15 16  1  0  0  0  0
 15 17  2  0  0  0  0
 17 18  1  0  0  0  0
 19 20  1  0  0  0  0
 20 21  2  0  0  0  0
 21 22  1  0  0  0  0
 22 23  2  0  0  0  0
 22 24  1  0  0  0  0
 22 30  1  0  0  0  0
 24 29  2  0  0  0  0
 24 25  1  0  0  0  0
 25 26  2  0  0  0  0
 26 27  1  0  0  0  0
 27 28  2  0  0  0  0
 28 29  1  0  0  0  0
 30 35  2  0  0  0  0
 30 31  1  0  0  0  0
 31 32  2  0  0  0  0
 32 33  1  0  0  0  0
 33 34  2  0  0  0  0
 34 35  1  0  0  0  0
 36 37  2  0  0  0  0
 37 38  1  0  0  0  0
 38 39  2  0  0  0  0
 39 40  1  0  0  0  0
M  END
> <NMREDATA_VERSION>
1.1

> <NMREDATA_LEVEL>
0

> <NMREDATA_SOLVENT>
CDCl3

> <NMREDATA_FORMULA>
C34H36NO3PS

> <NMREDATA_SMILES>
Cc1ccc(cc1)S(=O)(=O)N1CC(/C(=C/P(=O)(c2ccccc2)c2ccccc2)/C1)[C@H](CCc1ccccc1)C

> <NMREDATA_ASSIGNMENT>
P22, 21.30, 22

> <NMREDATA_1D_31P>
Larmor=243
21.30, L=P22

$$$$
