
 OpenBabel06112616452D

 37 40  0  0  0  0  0  0  0  0999 V2000
   -3.9024   -2.6654    0.0000 C   0  0  0  0  0  0  0  0  0  0  0  0
   -3.4146   -1.8205    0.0000 C   0  0  0  0  0  0  0  0  0  0  0  0
   -3.9024   -0.9756    0.0000 C   0  0  0  0  0  0  0  0  0  0  0  0
   -3.4146   -0.1307    0.0000 C   0  0  0  0  0  0  0  0  0  0  0  0
   -2.4390   -0.1307    0.0000 C   0  0  0  0  0  0  0  0  0  0  0  0
   -1.9512    0.7142    0.0000 O   0  0  0  0  0  0  0  0  0  0  0  0
   -1.9512   -0.9756    0.0000 C   0  0  0  0  0  0  0  0  0  0  0  0
    0.0000   -0.9756    0.0000 P   0  0  1  0  0  0  0  0  0  0  0  0
    0.0000   -1.9512    0.0000 O   0  0  0  0  0  0  0  0  0  0  0  0
    0.9756   -0.9756    0.0000 O   0  0  0  0  0  0  0  0  0  0  0  0
    1.4634   -1.8205    0.0000 C   0  0  0  0  0  0  0  0  0  0  0  0
    0.0000    0.0000    0.0000 C   0  0  0  0  0  0  0  0  0  0  0  0
   -0.8449    0.4878    0.0000 C   0  0  0  0  0  0  0  0  0  0  0  0
   -0.8449    1.4634    0.0000 C   0  0  0  0  0  0  0  0  0  0  0  0
   -1.6898    1.9512    0.0000 C   0  0  0  0  0  0  0  0  0  0  0  0
   -2.5347    1.4634    0.0000 C   0  0  0  0  0  0  0  0  0  0  0  0
   -3.3796    1.9512    0.0000 C   0  0  0  0  0  0  0  0  0  0  0  0
   -3.3796    2.9268    0.0000 C   0  0  0  0  0  0  0  0  0  0  0  0
   -2.5347    3.4146    0.0000 C   0  0  0  0  0  0  0  0  0  0  0  0
   -1.6898    2.9268    0.0000 C   0  0  0  0  0  0  0  0  0  0  0  0
    0.0000    1.9512    0.0000 C   0  0  0  0  0  0  0  0  0  0  0  0
    0.8449    1.4634    0.0000 C   0  0  0  0  0  0  0  0  0  0  0  0
    0.8449    0.4878    0.0000 C   0  0  0  0  0  0  0  0  0  0  0  0
    1.6898    0.0000    0.0000 O   0  0  0  0  0  0  0  0  0  0  0  0
    2.5347    0.4878    0.0000 C   0  0  0  0  0  0  0  0  0  0  0  0
    3.3796    0.0000    0.0000 O   0  0  0  0  0  0  0  0  0  0  0  0
    2.5347    1.4634    0.0000 C   0  0  0  0  0  0  0  0  0  0  0  0
    3.3796    1.9512    0.0000 C   0  0  0  0  0  0  0  0  0  0  0  0
    3.8674    2.7961    0.0000 C   0  0  0  0  0  0  0  0  0  0  0  0
    2.8918    2.7961    0.0000 C   0  0  0  0  0  0  0  0  0  0  0  0
    4.2245    1.4634    0.0000 C   0  0  0  0  0  0  0  0  0  0  0  0
   -2.4390   -1.8205    0.0000 C   0  0  0  0  0  0  0  0  0  0  0  0
   -3.4146   -3.5103    0.0000 C   0  0  0  0  0  0  0  0  0  0  0  0
   -3.9024   -4.3552    0.0000 C   0  0  0  0  0  0  0  0  0  0  0  0
   -4.8780   -4.3552    0.0000 C   0  0  0  0  0  0  0  0  0  0  0  0
   -5.3659   -3.5103    0.0000 C   0  0  0  0  0  0  0  0  0  0  0  0
   -4.8780   -2.6654    0.0000 C   0  0  0  0  0  0  0  0  0  0  0  0
  1 37  2  0  0  0  0
  1  2  1  0  0  0  0
  1 33  1  0  0  0  0
  2 32  2  0  0  0  0
  2  3  1  0  0  0  0
  3  4  2  0  0  0  0
  4  5  1  0  0  0  0
  5  6  1  0  0  0  0
  5  7  2  0  0  0  0
  7  8  1  0  0  0  0
  7 32  1  0  0  0  0
  8  9  2  1  0  0  0
  8 10  1  0  0  0  0
  8 12  1  0  0  0  0
 10 11  1  0  0  0  0
 12 23  2  0  0  0  0
 12 13  1  0  0  0  0
 13 14  2  0  0  0  0
 14 15  1  0  0  0  0
 14 21  1  0  0  0  0
 15 20  2  0  0  0  0
 15 16  1  0  0  0  0
 16 17  2  0  0  0  0
 17 18  1  0  0  0  0
 18 19  2  0  0  0  0
 19 20  1  0  0  0  0
 21 22  2  0  0  0  0
 22 23  1  0  0  0  0
 23 24  1  0  0  0  0
 24 25  1  0  0  0  0
 25 26  2  0  0  0  0
 25 27  1  0  0  0  0
 27 28  1  0  0  0  0
 28 29  1  0  0  0  0
 28 30  1  0  0  0  0
 28 31  1  0  0  0  0
 33 34  2  0  0  0  0
 34 35  1  0  0  0  0
 35 36  2  0  0  0  0
 36 37  1  0  0  0  0
M  END
> <NMREDATA_VERSION>
1.1

> <NMREDATA_LEVEL>
0

> <NMREDATA_SOLVENT>
CDCl3

> <NMREDATA_FORMULA>
C31H31O5P

> <NMREDATA_SMILES>
CO[P@@](=O)(c1cc(ccc1OC(=O)CC(C)(C)C)c1ccccc1)c1cc(ccc1O)c1ccccc1

> <NMREDATA_ASSIGNMENT>
P8, 37.30, 8

> <NMREDATA_1D_31P>
Larmor=243
37.30, L=P8

$$$$
