
 OpenBabel06112616472D

 44 49  0  0  1  0  0  0  0  0999 V2000
    4.6226   -0.9245    0.0000 C    0  0  0  0  0  0  0  0  0  0  0  0
    3.6981   -0.9245    0.0000 C    0  0  0  0  0  0  0  0  0  0  0  0
    3.2358   -0.1239    0.0000 C    0  0  0  0  0  0  0  0  0  0  0  0
    2.3113   -0.1239    0.0000 C    0  0  0  0  0  0  0  0  0  0  0  0
    1.8491   -0.9245    0.0000 C    0  0  0  0  0  0  0  0  0  0  0  0
    0.0000   -0.9245    0.0000 S    0  0  0  0  0  0  0  0  0  0  0  0
    0.0000   -1.8491    0.0000 O    0  0  0  0  0  0  0  0  0  0  0  0
   -0.9245   -0.9245    0.0000 O    0  0  0  0  0  0  0  0  0  0  0  0
    0.0000    0.0000    0.0000 N    0  0  0  0  0  0  0  0  0  0  0  0
    0.7480    0.5434    0.0000 C    0  0  0  0  0  0  0  0  0  0  0  0
    1.6272    0.2577    0.0000 S    0  0  0  0  0  0  0  0  0  0  0  0
    0.4623    1.4227    0.0000 N    0  0  0  0  0  0  0  0  0  0  0  0
   -0.4623    1.4227    0.0000 C    0  0  1  0  0  0  0  0  0  0  0  0
   -3.8407    2.9269    0.0000 P    0  0  3  0  0  0  0  0  0  0  0  0
   -4.2167    2.0823    0.0000 O    0  0  0  0  0  0  0  0  0  0  0  0
   -4.6853    3.3029    0.0000 O    0  0  0  0  0  0  0  0  0  0  0  0
   -5.4332    2.7595    0.0000 C    0  0  0  0  0  0  0  0  0  0  0  0
   -6.2778    3.1355    0.0000 C    0  0  0  0  0  0  0  0  0  0  0  0
   -7.0258    2.5921    0.0000 C    0  0  0  0  0  0  0  0  0  0  0  0
   -6.9291    1.6726    0.0000 C    0  0  0  0  0  0  0  0  0  0  0  0
   -6.0845    1.2966    0.0000 C    0  0  0  0  0  0  0  0  0  0  0  0
   -5.3366    1.8400    0.0000 C    0  0  0  0  0  0  0  0  0  0  0  0
   -3.4646    3.7715    0.0000 C    0  0  0  0  0  0  0  0  0  0  0  0
   -2.5452    3.8681    0.0000 C    0  0  0  0  0  0  0  0  0  0  0  0
   -2.1691    4.7127    0.0000 C    0  0  0  0  0  0  0  0  0  0  0  0
   -2.7125    5.4607    0.0000 C    0  0  0  0  0  0  0  0  0  0  0  0
   -3.6320    5.3640    0.0000 C    0  0  0  0  0  0  0  0  0  0  0  0
   -4.0080    4.5194    0.0000 C    0  0  0  0  0  0  0  0  0  0  0  0
   -0.5589    2.3422    0.0000 C    0  0  0  0  0  0  0  0  0  0  0  0
    0.1891    2.8856    0.0000 C    0  0  0  0  0  0  0  0  0  0  0  0
    0.0924    3.8051    0.0000 C    0  0  0  0  0  0  0  0  0  0  0  0
   -0.7522    4.1811    0.0000 C    0  0  0  0  0  0  0  0  0  0  0  0
   -1.5001    3.6377    0.0000 C    0  0  0  0  0  0  0  0  0  0  0  0
   -1.4035    2.7182    0.0000 C    0  0  0  0  0  0  0  0  0  0  0  0
   -0.7480    0.5434    0.0000 C    0  0  1  0  0  0  0  0  0  0  0  0
   -1.6272    0.2577    0.0000 C    0  0  0  0  0  0  0  0  0  0  0  0
   -2.3143    0.8764    0.0000 C    0  0  0  0  0  0  0  0  0  0  0  0
   -3.1936    0.5907    0.0000 C    0  0  0  0  0  0  0  0  0  0  0  0
   -3.3858   -0.3137    0.0000 C    0  0  0  0  0  0  0  0  0  0  0  0
   -4.2651   -0.5994    0.0000 Cl   0  0  0  0  0  0  0  0  0  0  0  0
   -2.6987   -0.9323    0.0000 C    0  0  0  0  0  0  0  0  0  0  0  0
   -1.8195   -0.6466    0.0000 C    0  0  0  0  0  0  0  0  0  0  0  0
    2.3113   -1.7252    0.0000 C    0  0  0  0  0  0  0  0  0  0  0  0
    3.2358   -1.7252    0.0000 C    0  0  0  0  0  0  0  0  0  0  0  0
  1  2  1  0  0  0  0
  2 44  2  0  0  0  0
  2  3  1  0  0  0  0
  3  4  2  0  0  0  0
  4  5  1  0  0  0  0
  5  6  1  0  0  0  0
  5 43  2  0  0  0  0
  6  7  2  0  0  0  0
  6  8  2  0  0  0  0
  6  9  1  0  0  0  0
  9 35  1  0  0  0  0
  9 10  1  0  0  0  0
 10 11  2  0  0  0  0
 10 12  1  0  0  0  0
 12 13  1  0  0  0  0
 13 14  1  1  0  0  0
 13 29  1  0  0  0  0
 13 35  1  0  0  0  0
 14 15  2  0  0  0  0
 14 16  1  0  0  0  0
 14 23  1  0  0  0  0
 16 17  1  0  0  0  0
 17 22  2  0  0  0  0
 17 18  1  0  0  0  0
 18 19  2  0  0  0  0
 19 20  1  0  0  0  0
 20 21  2  0  0  0  0
 21 22  1  0  0  0  0
 23 28  2  0  0  0  0
 23 24  1  0  0  0  0
 24 25  2  0  0  0  0
 25 26  1  0  0  0  0
 26 27  2  0  0  0  0
 27 28  1  0  0  0  0
 29 34  2  0  0  0  0
 29 30  1  0  0  0  0
 30 31  2  0  0  0  0
 31 32  1  0  0  0  0
 32 33  2  0  0  0  0
 33 34  1  0  0  0  0
 35 36  1  6  0  0  0
 36 42  2  0  0  0  0
 36 37  1  0  0  0  0
 37 38  2  0  0  0  0
 38 39  1  0  0  0  0
 39 40  1  0  0  0  0
 39 41  2  0  0  0  0
 41 42  1  0  0  0  0
 43 44  1  0  0  0  0
M  END
> <NMREDATA_VERSION>
1.1

> <NMREDATA_LEVEL>
0

> <NMREDATA_SOLVENT>
CDCl3

> <NMREDATA_FORMULA>
C34H28ClN2O4PS2

> <NMREDATA_SMILES>
Clc1ccc(cc1)[C@H]1N(C(=S)N[C@]1(c1ccccc1)P(=O)(c1ccccc1)Oc1ccccc1)S(=O)(=O)c1ccc(cc1)C

> <NMREDATA_ASSIGNMENT>
P14, 10.70, 14

> <NMREDATA_1D_31P>
Larmor=121
10.70, L=P14

$$$$
