
 OpenBabel06112616432D

 15 16  0  0  0  0  0  0  0  0999 V2000
    2.0403    1.9864    0.0000 C   0  0  0  0  0  0  0  0  0  0  0  0
    1.0417    2.0387    0.0000 C   0  0  0  0  0  0  0  0  0  0  0  0
    0.4971    1.2000    0.0000 O   0  0  0  0  0  0  0  0  0  0  0  0
    0.9511    0.3090    0.0000 P   0  0  3  0  0  0  0  0  0  0  0  0
    1.9146    0.5767    0.0000 O   0  0  0  0  0  0  0  0  0  0  0  0
    1.5388   -0.5000    0.0000 N   0  0  0  0  0  0  0  0  0  0  0  0
    0.9511   -1.3090    0.0000 C   0  0  0  0  0  0  0  0  0  0  0  0
    1.2601   -2.2601    0.0000 O   0  0  0  0  0  0  0  0  0  0  0  0
    0.0000   -1.0000    0.0000 C   0  0  0  0  0  0  0  0  0  0  0  0
   -0.8660   -1.5000    0.0000 C   0  0  0  0  0  0  0  0  0  0  0  0
   -1.7321   -1.0000    0.0000 C   0  0  0  0  0  0  0  0  0  0  0  0
   -1.7321    0.0000    0.0000 C   0  0  0  0  0  0  0  0  0  0  0  0
   -0.8660    0.5000    0.0000 C   0  0  0  0  0  0  0  0  0  0  0  0
   -0.8660    1.5000    0.0000 C   0  0  0  0  0  0  0  0  0  0  0  0
    0.0000    0.0000    0.0000 C   0  0  0  0  0  0  0  0  0  0  0  0
  1  2  1  0  0  0  0
  2  3  1  0  0  0  0
  3  4  1  0  0  0  0
  4 15  1  0  0  0  0
  4  5  2  0  0  0  0
  4  6  1  0  0  0  0
  6  7  1  0  0  0  0
  7  8  2  0  0  0  0
  7  9  1  0  0  0  0
  9 15  2  0  0  0  0
  9 10  1  0  0  0  0
 10 11  2  0  0  0  0
 11 12  1  0  0  0  0
 12 13  2  0  0  0  0
 13 14  1  0  0  0  0
 13 15  1  0  0  0  0
M  END
> <NMREDATA_VERSION>
1.1

> <NMREDATA_LEVEL>
0

> <NMREDATA_SOLVENT>
CDCl3

> <NMREDATA_FORMULA>
C10H12NO3P

> <NMREDATA_SMILES>
CCOP1(=O)NC(=O)c2c1c(C)ccc2

> <NMREDATA_ASSIGNMENT>
P4, 20.80, 4

> <NMREDATA_1D_31P>
Larmor=161
20.80, L=P4

$$$$
