
 OpenBabel06112616482D

 58 64  0  0  1  0  0  0  0  0999 V2000
   11.6755   -0.4714    0.0000 Br   0  5  0  0  0  0  0  0  0  0  0  0
   -1.1924   -7.4215    0.0000 C    0  0  0  0  0  0  0  0  0  0  0  0
   -0.6924   -8.2875    0.0000 C    0  0  0  0  0  0  0  0  0  0  0  0
    0.3076   -8.2875    0.0000 C    0  0  0  0  0  0  0  0  0  0  0  0
    0.8076   -7.4215    0.0000 C    0  0  3  0  0  0  0  0  0  0  0  0
    0.2833   -7.9865    0.0000 C    0  0  0  0  0  0  0  0  0  0  0  0
   -0.4854   -7.9289    0.0000 C    0  0  0  0  0  0  0  0  0  0  0  0
   -0.9196   -7.2920    0.0000 C    0  0  0  0  0  0  0  0  0  0  0  0
   -0.6924   -6.5555    0.0000 C    0  0  3  0  0  0  0  0  0  0  0  0
    0.3076   -6.5555    0.0000 B    0  0  0  0  0  0  0  0  0  0  0  0
    0.4714   -5.3842    0.0000 C    0  0  0  0  0  0  0  0  0  0  0  0
    1.4103   -5.3842    0.0000 C    0  0  0  0  0  0  0  0  0  0  0  0
    1.8798   -4.5710    0.0000 C    0  0  0  0  0  0  0  0  0  0  0  0
    2.8188   -4.5710    0.0000 C    0  0  0  0  0  0  0  0  0  0  0  0
    3.2883   -3.7578    0.0000 C    0  0  0  0  0  0  0  0  0  0  0  0
    4.2273   -3.7578    0.0000 P    0  0  0  0  0  4  0  0  0  0  0  0
    4.2273   -4.6968    0.0000 C    0  0  0  0  0  0  0  0  0  0  0  0
    5.0405   -5.1663    0.0000 C    0  0  0  0  0  0  0  0  0  0  0  0
    5.0405   -6.1052    0.0000 C    0  0  0  0  0  0  0  0  0  0  0  0
    5.8536   -6.5747    0.0000 C    0  0  0  0  0  0  0  0  0  0  0  0
    5.8536   -7.5137    0.0000 C    0  0  0  0  0  0  0  0  0  0  0  0
   -3.1565    1.6407    0.0000 B    0  0  0  0  0  0  0  0  0  0  0  0
   -3.1565    2.6407    0.0000 C    0  0  3  0  0  0  0  0  0  0  0  0
   -2.5914    2.1164    0.0000 C    0  0  0  0  0  0  0  0  0  0  0  0
   -2.6490    1.3477    0.0000 C    0  0  0  0  0  0  0  0  0  0  0  0
   -3.2859    0.9135    0.0000 C    0  0  0  0  0  0  0  0  0  0  0  0
   -4.0225    1.1407    0.0000 C    0  0  3  0  0  0  0  0  0  0  0  0
   -4.8885    1.6407    0.0000 C    0  0  0  0  0  0  0  0  0  0  0  0
   -4.8885    2.6407    0.0000 C    0  0  0  0  0  0  0  0  0  0  0  0
   -4.0225    3.1407    0.0000 C    0  0  0  0  0  0  0  0  0  0  0  0
    5.1663   -3.7578    0.0000 C    0  0  0  0  0  0  0  0  0  0  0  0
    5.6358   -4.5710    0.0000 C    0  0  0  0  0  0  0  0  0  0  0  0
    6.5747   -4.5710    0.0000 C    0  0  0  0  0  0  0  0  0  0  0  0
    7.0442   -5.3842    0.0000 C    0  0  0  0  0  0  0  0  0  0  0  0
    7.9832   -5.3842    0.0000 C    0  0  0  0  0  0  0  0  0  0  0  0
    8.9222   -7.0105    0.0000 B    0  0  0  0  0  0  0  0  0  0  0  0
    9.8612   -7.0105    0.0000 C    0  0  3  0  0  0  0  0  0  0  0  0
    9.3689   -6.4799    0.0000 C    0  0  0  0  0  0  0  0  0  0  0  0
    8.6471   -6.5340    0.0000 C    0  0  0  0  0  0  0  0  0  0  0  0
    8.2394   -7.1321    0.0000 C    0  0  0  0  0  0  0  0  0  0  0  0
    8.4527   -7.8237    0.0000 C    0  0  3  0  0  0  0  0  0  0  0  0
    8.9222   -8.6369    0.0000 C    0  0  0  0  0  0  0  0  0  0  0  0
    9.8612   -8.6369    0.0000 C    0  0  0  0  0  0  0  0  0  0  0  0
   10.3307   -7.8237    0.0000 C    0  0  0  0  0  0  0  0  0  0  0  0
    4.2273   -2.8188    0.0000 C    0  0  0  0  0  0  0  0  0  0  0  0
    5.0405   -2.3493    0.0000 C    0  0  0  0  0  0  0  0  0  0  0  0
    5.8536   -2.8188    0.0000 C    0  0  0  0  0  0  0  0  0  0  0  0
    6.6668   -2.3493    0.0000 C    0  0  0  0  0  0  0  0  0  0  0  0
    7.4800   -2.8188    0.0000 C    0  0  0  0  0  0  0  0  0  0  0  0
    9.1064   -1.8798    0.0000 B    0  0  0  0  0  0  0  0  0  0  0  0
    9.1064   -0.9408    0.0000 C    0  0  3  0  0  0  0  0  0  0  0  0
    8.5758   -1.4332    0.0000 C    0  0  0  0  0  0  0  0  0  0  0  0
    8.6299   -2.1549    0.0000 C    0  0  0  0  0  0  0  0  0  0  0  0
    9.2279   -2.5627    0.0000 C    0  0  0  0  0  0  0  0  0  0  0  0
    9.9196   -2.3493    0.0000 C    0  0  3  0  0  0  0  0  0  0  0  0
   10.7327   -1.8798    0.0000 C    0  0  0  0  0  0  0  0  0  0  0  0
   10.7327   -0.9408    0.0000 C    0  0  0  0  0  0  0  0  0  0  0  0
    9.9196   -0.4714    0.0000 C    0  0  0  0  0  0  0  0  0  0  0  0
  2  9  1  0  0  0  0
  2  3  1  0  0  0  0
  3  4  1  0  0  0  0
  4  5  1  0  0  0  0
  5 10  1  0  0  0  0
  5  6  1  0  0  0  0
  6  7  1  0  0  0  0
  7  8  1  0  0  0  0
  8  9  1  0  0  0  0
  9 10  1  0  0  0  0
 10 11  1  0  0  0  0
 11 12  1  0  0  0  0
 12 13  1  0  0  0  0
 13 14  1  0  0  0  0
 14 15  1  0  0  0  0
 15 16  1  0  0  0  0
 16 17  1  0  0  0  0
 16 31  1  0  0  0  0
 16 45  1  0  0  0  0
 17 18  1  0  0  0  0
 18 19  1  0  0  0  0
 19 20  1  0  0  0  0
 20 21  1  0  0  0  0
 21 22  1  0  0  0  0
 22 27  1  0  0  0  0
 22 23  1  0  0  0  0
 23 30  1  0  0  0  0
 23 24  1  0  0  0  0
 24 25  1  0  0  0  0
 25 26  1  0  0  0  0
 26 27  1  0  0  0  0
 27 28  1  0  0  0  0
 28 29  1  0  0  0  0
 29 30  1  0  0  0  0
 31 32  1  0  0  0  0
 32 33  1  0  0  0  0
 33 34  1  0  0  0  0
 34 35  1  0  0  0  0
 35 36  1  0  0  0  0
 36 41  1  0  0  0  0
 36 37  1  0  0  0  0
 37 44  1  0  0  0  0
 37 38  1  0  0  0  0
 38 39  1  0  0  0  0
 39 40  1  0  0  0  0
 40 41  1  0  0  0  0
 41 42  1  0  0  0  0
 42 43  1  0  0  0  0
 43 44  1  0  0  0  0
 45 46  1  0  0  0  0
 46 47  1  0  0  0  0
 47 48  1  0  0  0  0
 48 49  1  0  0  0  0
 49 50  1  0  0  0  0
 50 55  1  0  0  0  0
 50 51  1  0  0  0  0
 51 58  1  0  0  0  0
 51 52  1  0  0  0  0
 52 53  1  0  0  0  0
 53 54  1  0  0  0  0
 54 55  1  0  0  0  0
 55 56  1  0  0  0  0
 56 57  1  0  0  0  0
 57 58  1  0  0  0  0
M  END
> <NMREDATA_VERSION>
1.1

> <NMREDATA_LEVEL>
0

> <NMREDATA_SOLVENT>
CDCl3

> <NMREDATA_FORMULA>
C52H96B4BrP

> <NMREDATA_SMILES>
C(CP(CCCCCB1C2CCCC1CCC2)(CCCCCB1C2CCCC1CCC2)CCCCCB1C2CCCC1CCC2)CCCB1C2CCCC1CCC2.Br

> <NMREDATA_ASSIGNMENT>
P16, 32.68, 16

> <NMREDATA_1D_31P>
Larmor=162
32.68, L=P16

$$$$
