
 OpenBabel06112616442D

 51 60  0  0  0  0  0  0  0  0999 V2000
    0.7071   -0.7071    0.0000 C   0  0  0  0  0  0  0  0  0  0  0  0
    1.6730   -0.4483    0.0000 P   0  0  3  0  0  0  0  0  0  0  0  0
    1.8036    0.5432    0.0000 O   0  0  0  0  0  0  0  0  0  0  0  0
    2.5391    0.0517    0.0000 C   0  0  0  0  0  0  0  0  0  0  0  0
    3.4051   -0.4483    0.0000 C   0  0  0  0  0  0  0  0  0  0  0  0
    4.2711    0.0517    0.0000 C   0  0  0  0  0  0  0  0  0  0  0  0
    4.2711    1.0517    0.0000 C   0  0  0  0  0  0  0  0  0  0  0  0
    5.1371    1.5517    0.0000 C   0  0  0  0  0  0  0  0  0  0  0  0
    5.1371    2.5517    0.0000 N   0  0  0  0  0  0  0  0  0  0  0  0
    4.2711    3.0517    0.0000 C   0  0  0  0  0  0  0  0  0  0  0  0
    3.4051    2.5517    0.0000 C   0  0  0  0  0  0  0  0  0  0  0  0
    2.5391    3.0517    0.0000 C   0  0  0  0  0  0  0  0  0  0  0  0
    2.5391    4.0517    0.0000 C   0  0  0  0  0  0  0  0  0  0  0  0
    3.4051    4.5517    0.0000 C   0  0  0  0  0  0  0  0  0  0  0  0
    4.2711    4.0517    0.0000 C   0  0  0  0  0  0  0  0  0  0  0  0
    5.1371    4.5517    0.0000 O   0  0  0  0  0  0  0  0  0  0  0  0
    6.0032    4.0517    0.0000 C   0  0  0  0  0  0  0  0  0  0  0  0
    6.8692    4.5517    0.0000 C   0  0  0  0  0  0  0  0  0  0  0  0
    7.7352    4.0517    0.0000 C   0  0  0  0  0  0  0  0  0  0  0  0
    7.7352    3.0517    0.0000 C   0  0  0  0  0  0  0  0  0  0  0  0
    6.8692    2.5517    0.0000 C   0  0  0  0  0  0  0  0  0  0  0  0
    6.0032    3.0517    0.0000 C   0  0  0  0  0  0  0  0  0  0  0  0
    6.0032    1.0517    0.0000 C   0  0  0  0  0  0  0  0  0  0  0  0
    6.0032    0.0517    0.0000 C   0  0  0  0  0  0  0  0  0  0  0  0
    6.8692   -0.4483    0.0000 N   0  0  0  0  0  0  0  0  0  0  0  0
    7.7352    0.0517    0.0000 C   0  0  0  0  0  0  0  0  0  0  0  0
    7.7352    1.0517    0.0000 C   0  0  0  0  0  0  0  0  0  0  0  0
    8.6012    1.5517    0.0000 C   0  0  0  0  0  0  0  0  0  0  0  0
    9.4673    1.0517    0.0000 C   0  0  0  0  0  0  0  0  0  0  0  0
    9.4673    0.0517    0.0000 C   0  0  0  0  0  0  0  0  0  0  0  0
    8.6012   -0.4483    0.0000 C   0  0  0  0  0  0  0  0  0  0  0  0
    8.6012   -1.4483    0.0000 O   0  0  0  0  0  0  0  0  0  0  0  0
    7.7352   -1.9483    0.0000 C   0  0  0  0  0  0  0  0  0  0  0  0
    7.7352   -2.9483    0.0000 C   0  0  0  0  0  0  0  0  0  0  0  0
    6.8692   -3.4483    0.0000 C   0  0  0  0  0  0  0  0  0  0  0  0
    6.0032   -2.9483    0.0000 C   0  0  0  0  0  0  0  0  0  0  0  0
    6.0032   -1.9483    0.0000 C   0  0  0  0  0  0  0  0  0  0  0  0
    6.8692   -1.4483    0.0000 C   0  0  0  0  0  0  0  0  0  0  0  0
    5.1371   -0.4483    0.0000 C   0  0  0  0  0  0  0  0  0  0  0  0
    3.4051   -1.4483    0.0000 O   0  0  0  0  0  0  0  0  0  0  0  0
    2.5391   -1.9483    0.0000 C   0  0  0  0  0  0  0  0  0  0  0  0
    2.5391   -2.9483    0.0000 C   0  0  0  0  0  0  0  0  0  0  0  0
    1.6730   -3.4483    0.0000 C   0  0  0  0  0  0  0  0  0  0  0  0
    0.8070   -2.9483    0.0000 C   0  0  0  0  0  0  0  0  0  0  0  0
    0.8070   -1.9483    0.0000 C   0  0  0  0  0  0  0  0  0  0  0  0
    1.6730   -1.4483    0.0000 C   0  0  0  0  0  0  0  0  0  0  0  0
    0.4483   -1.6730    0.0000 C   0  0  0  0  0  0  0  0  0  0  0  0
   -0.5176   -1.9319    0.0000 C   0  0  0  0  0  0  0  0  0  0  0  0
   -1.2247   -1.2247    0.0000 C   0  0  0  0  0  0  0  0  0  0  0  0
   -0.9659   -0.2588    0.0000 C   0  0  0  0  0  0  0  0  0  0  0  0
    0.0000    0.0000    0.0000 C   0  0  0  0  0  0  0  0  0  0  0  0
  1 51  2  0  0  0  0
  1  2  1  0  0  0  0
  1 47  1  0  0  0  0
  2 46  1  0  0  0  0
  2  3  2  0  0  0  0
  2  4  1  0  0  0  0
  4  5  2  0  0  0  0
  5  6  1  0  0  0  0
  5 40  1  0  0  0  0
  6 39  2  0  0  0  0
  6  7  1  0  0  0  0
  7  8  2  0  0  0  0
  8  9  1  0  0  0  0
  8 23  1  0  0  0  0
  9 22  1  0  0  0  0
  9 10  1  0  0  0  0
 10 15  2  0  0  0  0
 10 11  1  0  0  0  0
 11 12  2  0  0  0  0
 12 13  1  0  0  0  0
 13 14  2  0  0  0  0
 14 15  1  0  0  0  0
 15 16  1  0  0  0  0
 16 17  1  0  0  0  0
 17 22  2  0  0  0  0
 17 18  1  0  0  0  0
 18 19  2  0  0  0  0
 19 20  1  0  0  0  0
 20 21  2  0  0  0  0
 21 22  1  0  0  0  0
 23 24  2  0  0  0  0
 24 25  1  0  0  0  0
 24 39  1  0  0  0  0
 25 38  1  0  0  0  0
 25 26  1  0  0  0  0
 26 31  2  0  0  0  0
 26 27  1  0  0  0  0
 27 28  2  0  0  0  0
 28 29  1  0  0  0  0
 29 30  2  0  0  0  0
 30 31  1  0  0  0  0
 31 32  1  0  0  0  0
 32 33  1  0  0  0  0
 33 38  2  0  0  0  0
 33 34  1  0  0  0  0
 34 35  2  0  0  0  0
 35 36  1  0  0  0  0
 36 37  2  0  0  0  0
 37 38  1  0  0  0  0
 40 41  1  0  0  0  0
 41 46  2  0  0  0  0
 41 42  1  0  0  0  0
 42 43  2  0  0  0  0
 43 44  1  0  0  0  0
 44 45  2  0  0  0  0
 45 46  1  0  0  0  0
 47 48  2  0  0  0  0
 48 49  1  0  0  0  0
 49 50  2  0  0  0  0
 50 51  1  0  0  0  0
M  END
> <NMREDATA_VERSION>
1.1

> <NMREDATA_LEVEL>
0

> <NMREDATA_SOLVENT>
CDCl3

> <NMREDATA_FORMULA>
C44H29N2O4P

> <NMREDATA_SMILES>
O=P1(C=C(Oc2c1cccc2)c1cc(cc(c1)N1c2ccccc2Oc2c1cccc2)N1c2ccccc2Oc2c1cccc2)c1ccccc1

> <NMREDATA_ASSIGNMENT>
P2, -1.84, 2

> <NMREDATA_1D_31P>
Larmor=162
-1.84, L=P2

$$$$
