
 OpenBabel06112616432D

 29 32  0  0  1  0  0  0  0  0999 V2000
   -4.3894   -1.3029    0.0000 C   0  0  0  0  0  0  0  0  0  0  0  0
   -3.4316   -1.4545    0.0000 C   0  0  1  0  0  0  0  0  0  0  0  0
   -3.3897   -2.4233    0.0000 C   0  0  0  0  0  0  0  0  0  0  0  0
   -2.5094   -1.7542    0.0000 C   0  0  0  0  0  0  0  0  0  0  0  0
   -2.2097   -2.6764    0.0000 O   0  0  0  0  0  0  0  0  0  0  0  0
   -1.9394   -0.9697    0.0000 C   0  0  1  0  0  0  0  0  0  0  0  0
    0.0000   -0.9697    0.0000 P   0  0  0  0  0  0  0  0  0  0  0  0
    0.0000   -1.9394    0.0000 C   0  0  0  0  0  0  0  0  0  0  0  0
    0.8398   -2.4242    0.0000 C   0  0  0  0  0  0  0  0  0  0  0  0
    0.8398   -3.3939    0.0000 C   0  0  0  0  0  0  0  0  0  0  0  0
    0.0000   -3.8788    0.0000 C   0  0  0  0  0  0  0  0  0  0  0  0
   -0.8398   -3.3939    0.0000 C   0  0  0  0  0  0  0  0  0  0  0  0
   -0.8398   -2.4242    0.0000 C   0  0  0  0  0  0  0  0  0  0  0  0
    0.9697   -0.9697    0.0000 C   0  0  0  0  0  0  0  0  0  0  0  0
    1.4545   -0.1299    0.0000 C   0  0  0  0  0  0  0  0  0  0  0  0
    2.4242   -0.1299    0.0000 C   0  0  0  0  0  0  0  0  0  0  0  0
    2.9091   -0.9697    0.0000 C   0  0  0  0  0  0  0  0  0  0  0  0
    2.4242   -1.8095    0.0000 C   0  0  0  0  0  0  0  0  0  0  0  0
    1.4545   -1.8095    0.0000 C   0  0  0  0  0  0  0  0  0  0  0  0
    0.0000    0.0000    0.0000 O   0  0  0  0  0  0  0  0  0  0  0  0
   -2.5094   -0.1852    0.0000 C   0  0  2  0  0  0  0  0  0  0  0  0
   -2.2097    0.7370    0.0000 C   0  0  0  0  0  0  0  0  0  0  0  0
   -1.2875    1.0367    0.0000 C   0  0  0  0  0  0  0  0  0  0  0  0
   -1.2875    2.0064    0.0000 C   0  0  0  0  0  0  0  0  0  0  0  0
   -2.2097    2.3060    0.0000 C   0  0  0  0  0  0  0  0  0  0  0  0
   -2.7797    1.5215    0.0000 S   0  0  0  0  0  0  0  0  0  0  0  0
   -3.4316   -0.4848    0.0000 N   0  0  0  0  0  0  0  0  0  0  0  0
   -4.2161    0.0851    0.0000 C   0  0  0  0  0  0  0  0  0  0  0  0
   -4.7369   -0.3976    0.0000 C   0  0  0  0  0  0  0  0  0  0  0  0
  1  2  1  0  0  0  0
  1 29  1  0  0  0  0
  2 27  1  0  0  0  0
  2  3  1  1  0  0  0
  2  4  1  0  0  0  0
  4  5  2  0  0  0  0
  4  6  1  0  0  0  0
  6  7  1  6  0  0  0
  6 21  1  0  0  0  0
  7  8  1  0  0  0  0
  7 14  1  0  0  0  0
  7 20  2  0  0  0  0
  8 13  2  0  0  0  0
  8  9  1  0  0  0  0
  9 10  2  0  0  0  0
 10 11  1  0  0  0  0
 11 12  2  0  0  0  0
 12 13  1  0  0  0  0
 14 19  2  0  0  0  0
 14 15  1  0  0  0  0
 15 16  2  0  0  0  0
 16 17  1  0  0  0  0
 17 18  2  0  0  0  0
 18 19  1  0  0  0  0
 21 22  1  1  0  0  0
 21 27  1  0  0  0  0
 22 26  1  0  0  0  0
 22 23  2  0  0  0  0
 23 24  1  0  0  0  0
 24 25  2  0  0  0  0
 25 26  1  0  0  0  0
 27 28  1  0  0  0  0
M  END
> <NMREDATA_VERSION>
1.1

> <NMREDATA_LEVEL>
0

> <NMREDATA_SOLVENT>
CDCl3

> <NMREDATA_FORMULA>
C24H26NO2PS

> <NMREDATA_SMILES>
CC[C@]1(C)N(C)[C@H]([C@@H](C1=O)P(=O)(c1ccccc1)c1ccccc1)c1cccs1

> <NMREDATA_ASSIGNMENT>
P7, 27.23, 7

> <NMREDATA_1D_31P>
Larmor=162
27.23, L=P7

$$$$
