
 OpenBabel06112616432D

 57 65  0  0  0  0  0  0  0  0999 V2000
   -7.1691   -0.1281    0.0000 C   0  0  0  0  0  0  0  0  0  0  0  0
   -6.6912    0.6998    0.0000 C   0  0  0  0  0  0  0  0  0  0  0  0
   -7.1691    1.5276    0.0000 C   0  0  0  0  0  0  0  0  0  0  0  0
   -8.1250    1.5276    0.0000 C   0  0  0  0  0  0  0  0  0  0  0  0
   -8.6029    0.6998    0.0000 C   0  0  0  0  0  0  0  0  0  0  0  0
   -9.5588    0.6998    0.0000 C   0  0  0  0  0  0  0  0  0  0  0  0
  -10.0368    1.5276    0.0000 C   0  0  0  0  0  0  0  0  0  0  0  0
   -9.5588    2.3554    0.0000 C   0  0  0  0  0  0  0  0  0  0  0  0
   -8.6029    2.3554    0.0000 C   0  0  0  0  0  0  0  0  0  0  0  0
   -6.6912    2.3554    0.0000 C   0  0  0  0  0  0  0  0  0  0  0  0
   -7.1691    3.1832    0.0000 C   0  0  0  0  0  0  0  0  0  0  0  0
   -8.1250    3.1832    0.0000 C   0  0  0  0  0  0  0  0  0  0  0  0
   -8.6029    4.0110    0.0000 C   0  0  0  0  0  0  0  0  0  0  0  0
   -8.1250    4.8388    0.0000 C   0  0  0  0  0  0  0  0  0  0  0  0
   -7.1691    4.8388    0.0000 C   0  0  0  0  0  0  0  0  0  0  0  0
   -6.6912    4.0110    0.0000 C   0  0  0  0  0  0  0  0  0  0  0  0
   -5.7353    2.3554    0.0000 C   0  0  0  0  0  0  0  0  0  0  0  0
   -5.2574    3.1832    0.0000 C   0  0  0  0  0  0  0  0  0  0  0  0
   -4.3015    3.1832    0.0000 C   0  0  0  0  0  0  0  0  0  0  0  0
   -3.8235    2.3554    0.0000 C   0  0  0  0  0  0  0  0  0  0  0  0
   -2.8676    2.3554    0.0000 C   0  0  0  0  0  0  0  0  0  0  0  0
   -4.3015    1.5276    0.0000 C   0  0  0  0  0  0  0  0  0  0  0  0
   -2.3897   -1.7837    0.0000 C   0  0  0  0  0  0  0  0  0  0  0  0
   -2.8676   -2.6115    0.0000 C   0  0  0  0  0  0  0  0  0  0  0  0
   -2.3897   -3.4393    0.0000 C   0  0  0  0  0  0  0  0  0  0  0  0
   -1.4338   -3.4393    0.0000 C   0  0  0  0  0  0  0  0  0  0  0  0
   -0.9559   -2.6115    0.0000 C   0  0  0  0  0  0  0  0  0  0  0  0
    0.0000   -2.6115    0.0000 O   0  0  0  0  0  0  0  0  0  0  0  0
   -1.4338   -1.7837    0.0000 C   0  0  0  0  0  0  0  0  0  0  0  0
   -0.9559   -0.9559    0.0000 C   0  0  0  0  0  0  0  0  0  0  0  0
    0.0000   -0.9559    0.0000 P   0  0  0  0  0  0  0  0  0  0  0  0
    0.0000   -1.9118    0.0000 O   0  0  0  0  0  0  0  0  0  0  0  0
    0.9559   -0.9559    0.0000 C   0  0  0  0  0  0  0  0  0  0  0  0
    1.4338   -0.1281    0.0000 C   0  0  0  0  0  0  0  0  0  0  0  0
    2.3897   -0.1281    0.0000 C   0  0  0  0  0  0  0  0  0  0  0  0
    2.8676   -0.9559    0.0000 C   0  0  0  0  0  0  0  0  0  0  0  0
    2.3897   -1.7837    0.0000 C   0  0  0  0  0  0  0  0  0  0  0  0
    1.4338   -1.7837    0.0000 C   0  0  0  0  0  0  0  0  0  0  0  0
    0.0000    0.0000    0.0000 C   0  0  0  0  0  0  0  0  0  0  0  0
   -0.8278    0.4779    0.0000 C   0  0  0  0  0  0  0  0  0  0  0  0
   -0.8278    1.4338    0.0000 C   0  0  0  0  0  0  0  0  0  0  0  0
    0.0000    1.9118    0.0000 C   0  0  0  0  0  0  0  0  0  0  0  0
    0.8278    1.4338    0.0000 C   0  0  0  0  0  0  0  0  0  0  0  0
    0.8278    0.4779    0.0000 C   0  0  0  0  0  0  0  0  0  0  0  0
   -5.2574    1.5276    0.0000 C   0  0  0  0  0  0  0  0  0  0  0  0
   -5.7353    0.6998    0.0000 C   0  0  0  0  0  0  0  0  0  0  0  0
   -5.2574   -0.1281    0.0000 C   0  0  0  0  0  0  0  0  0  0  0  0
   -4.3015   -0.1281    0.0000 C   0  0  0  0  0  0  0  0  0  0  0  0
   -3.8235   -0.9559    0.0000 C   0  0  0  0  0  0  0  0  0  0  0  0
   -4.3015   -1.7837    0.0000 C   0  0  0  0  0  0  0  0  0  0  0  0
   -5.2574   -1.7837    0.0000 C   0  0  0  0  0  0  0  0  0  0  0  0
   -5.7353   -0.9559    0.0000 C   0  0  0  0  0  0  0  0  0  0  0  0
   -6.6912   -0.9559    0.0000 C   0  0  0  0  0  0  0  0  0  0  0  0
   -7.1691   -1.7837    0.0000 C   0  0  0  0  0  0  0  0  0  0  0  0
   -8.1250   -1.7837    0.0000 C   0  0  0  0  0  0  0  0  0  0  0  0
   -8.6029   -0.9559    0.0000 C   0  0  0  0  0  0  0  0  0  0  0  0
   -8.1250   -0.1281    0.0000 C   0  0  0  0  0  0  0  0  0  0  0  0
  1 57  2  0  0  0  0
  1  2  1  0  0  0  0
  1 53  1  0  0  0  0
  2 46  2  0  0  0  0
  2  3  1  0  0  0  0
  3  4  1  0  0  0  0
  3 10  2  0  0  0  0
  4  9  2  0  0  0  0
  4  5  1  0  0  0  0
  5  6  2  0  0  0  0
  6  7  1  0  0  0  0
  7  8  2  0  0  0  0
  8  9  1  0  0  0  0
 10 11  1  0  0  0  0
 10 17  1  0  0  0  0
 11 16  2  0  0  0  0
 11 12  1  0  0  0  0
 12 13  2  0  0  0  0
 13 14  1  0  0  0  0
 14 15  2  0  0  0  0
 15 16  1  0  0  0  0
 17 45  2  0  0  0  0
 17 18  1  0  0  0  0
 18 19  2  0  0  0  0
 19 20  1  0  0  0  0
 20 21  1  0  0  0  0
 20 22  2  0  0  0  0
 22 23  1  0  0  0  0
 22 45  1  0  0  0  0
 23 29  2  0  0  0  0
 23 24  1  0  0  0  0
 24 25  2  0  0  0  0
 25 26  1  0  0  0  0
 26 27  2  0  0  0  0
 27 28  1  0  0  0  0
 27 29  1  0  0  0  0
 29 30  1  0  0  0  0
 30 31  1  0  0  0  0
 31 32  2  0  0  0  0
 31 33  1  0  0  0  0
 31 39  1  0  0  0  0
 33 38  2  0  0  0  0
 33 34  1  0  0  0  0
 34 35  2  0  0  0  0
 35 36  1  0  0  0  0
 36 37  2  0  0  0  0
 37 38  1  0  0  0  0
 39 44  2  0  0  0  0
 39 40  1  0  0  0  0
 40 41  2  0  0  0  0
 41 42  1  0  0  0  0
 42 43  2  0  0  0  0
 43 44  1  0  0  0  0
 45 46  1  0  0  0  0
 46 47  1  0  0  0  0
 47 52  2  0  0  0  0
 47 48  1  0  0  0  0
 48 49  2  0  0  0  0
 49 50  1  0  0  0  0
 50 51  2  0  0  0  0
 51 52  1  0  0  0  0
 53 54  2  0  0  0  0
 54 55  1  0  0  0  0
 55 56  2  0  0  0  0
 56 57  1  0  0  0  0
M  END
> <NMREDATA_VERSION>
1.1

> <NMREDATA_LEVEL>
0

> <NMREDATA_SOLVENT>
CDCl3

> <NMREDATA_FORMULA>
C54H41O2P

> <NMREDATA_SMILES>
Oc1cccc(c1CP(=O)(c1ccccc1)c1ccccc1)c1c(C)ccc2c1c(c1ccccc1)c(c1ccccc1)c(c2c1ccccc1)c1ccccc1

> <NMREDATA_ASSIGNMENT>
P31, 37.43, 31

> <NMREDATA_1D_31P>
Larmor=162
37.43, L=P31

$$$$
