
 OpenBabel06112616462D

 29 31  0  0  1  0  0  0  0  0999 V2000
     0.134     0.500     0.000 F   0  0  0  0  0  0  0  0  0  0  0  0
     1.000     0.000     0.000 C   0  0  0  0  0  0  0  0  0  0  0  0
     2.000     0.000     0.000 F   0  0  0  0  0  0  0  0  0  0  0  0
     1.500     0.866     0.000 F   0  0  0  0  0  0  0  0  0  0  0  0
     1.000    -1.000     0.000 C   0  0  3  0  0  0  0  0  0  0  0  0
     2.000    -1.000     0.000 C   0  0  0  0  0  0  0  0  0  0  0  0
     2.500    -1.866     0.000 C   0  0  0  0  0  0  0  0  0  0  0  0
     3.500    -1.866     0.000 C   0  0  0  0  0  0  0  0  0  0  0  0
     4.000    -1.000     0.000 C   0  0  0  0  0  0  0  0  0  0  0  0
     3.500    -0.134     0.000 C   0  0  0  0  0  0  0  0  0  0  0  0
     2.500    -0.134     0.000 C   0  0  0  0  0  0  0  0  0  0  0  0
     1.000    -2.000     0.000 C   0  0  0  0  0  0  0  0  0  0  0  0
     1.000    -3.000     0.000 C   0  0  0  0  0  0  0  0  0  0  0  0
     0.000    -1.000     0.000 P   0  0  0  0  0  0  0  0  0  0  0  0
     0.000    -2.000     0.000 O   0  0  0  0  0  0  0  0  0  0  0  0
    -1.000    -1.000     0.000 C   0  0  0  0  0  0  0  0  0  0  0  0
    -1.500    -0.134     0.000 C   0  0  0  0  0  0  0  0  0  0  0  0
    -2.500    -0.134     0.000 C   0  0  0  0  0  0  0  0  0  0  0  0
    -3.000    -1.000     0.000 C   0  0  0  0  0  0  0  0  0  0  0  0
    -4.000    -1.000     0.000 C   0  0  0  0  0  0  0  0  0  0  0  0
    -2.500    -1.866     0.000 C   0  0  0  0  0  0  0  0  0  0  0  0
    -1.500    -1.866     0.000 C   0  0  0  0  0  0  0  0  0  0  0  0
     0.000     0.000     0.000 C   0  0  0  0  0  0  0  0  0  0  0  0
     0.866     0.500     0.000 C   0  0  0  0  0  0  0  0  0  0  0  0
     0.866     1.500     0.000 C   0  0  0  0  0  0  0  0  0  0  0  0
     0.000     2.000     0.000 C   0  0  0  0  0  0  0  0  0  0  0  0
     0.000     3.000     0.000 C   0  0  0  0  0  0  0  0  0  0  0  0
    -0.866     1.500     0.000 C   0  0  0  0  0  0  0  0  0  0  0  0
    -0.866     0.500     0.000 C   0  0  0  0  0  0  0  0  0  0  0  0
  1  2  1  0  0  0  0
  2  3  1  0  0  0  0
  2  4  1  0  0  0  0
  2  5  1  0  0  0  0
  5  6  1  0  0  0  0
  5 12  1  0  0  0  0
  5 14  1  0  0  0  0
  6 11  2  0  0  0  0
  6  7  1  0  0  0  0
  7  8  2  0  0  0  0
  8  9  1  0  0  0  0
  9 10  2  0  0  0  0
 10 11  1  0  0  0  0
 12 13  3  0  0  0  0
 14 15  2  0  0  0  0
 14 16  1  0  0  0  0
 14 23  1  0  0  0  0
 16 22  2  0  0  0  0
 16 17  1  0  0  0  0
 17 18  2  0  0  0  0
 18 19  1  0  0  0  0
 19 20  1  0  0  0  0
 19 21  2  0  0  0  0
 21 22  1  0  0  0  0
 23 29  2  0  0  0  0
 23 24  1  0  0  0  0
 24 25  2  0  0  0  0
 25 26  1  0  0  0  0
 26 27  1  0  0  0  0
 26 28  2  0  0  0  0
 28 29  1  0  0  0  0
M  END
> <NMREDATA_VERSION>
1.1

> <NMREDATA_LEVEL>
0

> <NMREDATA_SOLVENT>
CDCl3

> <NMREDATA_FORMULA>
C24H20F3OP

> <NMREDATA_SMILES>
C#CC(P(=O)(c1ccc(cc1)C)c1ccc(cc1)C)(C(F)(F)F)c1ccccc1

> <NMREDATA_ASSIGNMENT>
P14, 29.50, 14

> <NMREDATA_1D_31P>
Larmor=not_known
29.50, L=P14

$$$$
