
 OpenBabel06112616472D

 39 44  0  0  0  0  0  0  0  0999 V2000
   -0.2531    1.0111    0.0000 O    0  0  0  0  0  0  0  0  0  0  0  0
    0.0000    1.9556    0.0000 P    0  0  3  0  0  0  0  0  0  0  0  0
   -1.5514    3.1460    0.0000 C    0  0  0  0  0  0  0  0  0  0  0  0
   -1.4238    4.1154    0.0000 C    0  0  0  0  0  0  0  0  0  0  0  0
   -2.1995    4.7107    0.0000 C    0  0  0  0  0  0  0  0  0  0  0  0
   -3.1029    4.3365    0.0000 C    0  0  0  0  0  0  0  0  0  0  0  0
   -3.2305    3.3671    0.0000 C    0  0  0  0  0  0  0  0  0  0  0  0
   -4.1339    2.9929    0.0000 Cl   0  0  0  0  0  0  0  0  0  0  0  0
   -2.4548    2.7718    0.0000 C    0  0  0  0  0  0  0  0  0  0  0  0
    0.0000    2.9333    0.0000 C    0  0  0  0  0  0  0  0  0  0  0  0
   -0.8468    3.4222    0.0000 C    0  0  0  0  0  0  0  0  0  0  0  0
   -0.8468    4.4000    0.0000 C    0  0  0  0  0  0  0  0  0  0  0  0
   -1.6936    4.8889    0.0000 Cl   0  0  0  0  0  0  0  0  0  0  0  0
    0.0000    4.8889    0.0000 C    0  0  0  0  0  0  0  0  0  0  0  0
    0.8468    4.4000    0.0000 C    0  0  0  0  0  0  0  0  0  0  0  0
    0.8468    3.4222    0.0000 C    0  0  0  0  0  0  0  0  0  0  0  0
    1.6936    2.9333    0.0000 C    0  0  0  0  0  0  0  0  0  0  0  0
    1.6936    1.9556    0.0000 C    0  0  0  0  0  0  0  0  0  0  0  0
    2.5403    1.4667    0.0000 C    0  0  0  0  0  0  0  0  0  0  0  0
    3.3871    1.9556    0.0000 C    0  0  0  0  0  0  0  0  0  0  0  0
    4.2339    1.4667    0.0000 O    0  0  0  0  0  0  0  0  0  0  0  0
    5.0807    1.9556    0.0000 C    0  0  0  0  0  0  0  0  0  0  0  0
    5.9275    1.4667    0.0000 C    0  0  0  0  0  0  0  0  0  0  0  0
    6.7742    1.9556    0.0000 C    0  0  0  0  0  0  0  0  0  0  0  0
    7.6210    1.4667    0.0000 C    0  0  0  0  0  0  0  0  0  0  0  0
    7.6210    0.4889    0.0000 C    0  0  0  0  0  0  0  0  0  0  0  0
    6.7742    0.0000    0.0000 C    0  0  0  0  0  0  0  0  0  0  0  0
    5.9275    0.4889    0.0000 C    0  0  0  0  0  0  0  0  0  0  0  0
    0.8468    1.4667    0.0000 N    0  0  0  0  0  0  0  0  0  0  0  0
    0.8468    0.4889    0.0000 C    0  0  0  0  0  0  0  0  0  0  0  0
    1.6936    0.0000    0.0000 C    0  0  0  0  0  0  0  0  0  0  0  0
    1.6936   -0.9778    0.0000 C    0  0  0  0  0  0  0  0  0  0  0  0
    0.8468   -1.4667    0.0000 C    0  0  0  0  0  0  0  0  0  0  0  0
    0.0000   -0.9778    0.0000 C    0  0  0  0  0  0  0  0  0  0  0  0
   -0.8468   -1.4667    0.0000 C    0  0  0  0  0  0  0  0  0  0  0  0
   -1.6936   -0.9778    0.0000 C    0  0  0  0  0  0  0  0  0  0  0  0
   -1.6936    0.0000    0.0000 C    0  0  0  0  0  0  0  0  0  0  0  0
   -0.8468    0.4889    0.0000 N    0  0  0  0  0  0  0  0  0  0  0  0
    0.0000    0.0000    0.0000 C    0  0  0  0  0  0  0  0  0  0  0  0
  1  2  2  0  0  0  0
  2 29  1  0  0  0  0
  2  3  1  0  0  0  0
  2 10  1  0  0  0  0
  3  9  2  0  0  0  0
  3  4  1  0  0  0  0
  4  5  2  0  0  0  0
  5  6  1  0  0  0  0
  6  7  2  0  0  0  0
  7  8  1  0  0  0  0
  7  9  1  0  0  0  0
 10 16  2  0  0  0  0
 10 11  1  0  0  0  0
 11 12  2  0  0  0  0
 12 13  1  0  0  0  0
 12 14  1  0  0  0  0
 14 15  2  0  0  0  0
 15 16  1  0  0  0  0
 16 17  1  0  0  0  0
 17 18  2  0  0  0  0
 18 19  1  0  0  0  0
 18 29  1  0  0  0  0
 19 20  1  0  0  0  0
 20 21  1  0  0  0  0
 21 22  1  0  0  0  0
 22 23  1  0  0  0  0
 23 28  2  0  0  0  0
 23 24  1  0  0  0  0
 24 25  2  0  0  0  0
 25 26  1  0  0  0  0
 26 27  2  0  0  0  0
 27 28  1  0  0  0  0
 29 30  1  0  0  0  0
 30 39  2  0  0  0  0
 30 31  1  0  0  0  0
 31 32  2  0  0  0  0
 32 33  1  0  0  0  0
 33 34  2  0  0  0  0
 34 39  1  0  0  0  0
 34 35  1  0  0  0  0
 35 36  2  0  0  0  0
 36 37  1  0  0  0  0
 37 38  2  0  0  0  0
 38 39  1  0  0  0  0
M  END
> <NMREDATA_VERSION>
1.1

> <NMREDATA_LEVEL>
0

> <NMREDATA_SOLVENT>
CDCl3

> <NMREDATA_FORMULA>
C32H25Cl2N2O2P

> <NMREDATA_SMILES>
Clc1ccc2c(c1)P(=O)(c1cccc(c1)Cl)N(C(=C2)CCOCc1ccccc1)c1cccc2c1nccc2

> <NMREDATA_ASSIGNMENT>
P2, 15.20, 2

> <NMREDATA_1D_31P>
Larmor=162
15.20, L=P2

$$$$
