
 OpenBabel06112616452D

 27 28  0  0  0  0  0  0  0  0999 V2000
   -1.0000   -1.0000    0.0000 C    0  0  0  0  0  0  0  0  0  0  0  0
    0.0000   -1.0000    0.0000 Si   0  0  0  0  0  0  0  0  0  0  0  0
    0.0000   -2.0000    0.0000 C    0  0  0  0  0  0  0  0  0  0  0  0
    1.0000   -1.0000    0.0000 C    0  0  0  0  0  0  0  0  0  0  0  0
    0.0000    0.0000    0.0000 C    0  0  0  0  0  0  0  0  0  0  0  0
   -1.5878   -1.8090    0.0000 C    0  0  0  0  0  0  0  0  0  0  0  0
   -2.5388   -1.5000    0.0000 N    0  0  0  0  0  0  0  0  0  0  0  0
   -3.3479   -2.0878    0.0000 C    0  0  0  0  0  0  0  0  0  0  0  0
   -3.2433   -3.0823    0.0000 C    0  0  0  0  0  0  0  0  0  0  0  0
   -4.0523   -3.6701    0.0000 C    0  0  0  0  0  0  0  0  0  0  0  0
   -4.9659   -3.2634    0.0000 C    0  0  0  0  0  0  0  0  0  0  0  0
   -5.0704   -2.2688    0.0000 C    0  0  0  0  0  0  0  0  0  0  0  0
   -4.2614   -1.6810    0.0000 C    0  0  0  0  0  0  0  0  0  0  0  0
   -4.3659   -0.6865    0.0000 P    0  0  0  0  0  0  0  0  0  0  0  0
   -3.3714   -0.5820    0.0000 O    0  0  0  0  0  0  0  0  0  0  0  0
   -4.4705    0.3080    0.0000 N    0  0  0  0  0  0  0  0  0  0  0  0
   -3.6614    0.8958    0.0000 C    0  0  0  0  0  0  0  0  0  0  0  0
   -3.7660    1.8903    0.0000 C    0  0  0  0  0  0  0  0  0  0  0  0
   -5.3840    0.7147    0.0000 C    0  0  0  0  0  0  0  0  0  0  0  0
   -5.4885    1.7093    0.0000 C    0  0  0  0  0  0  0  0  0  0  0  0
   -5.3605   -0.7911    0.0000 N    0  0  0  0  0  0  0  0  0  0  0  0
   -5.9482    0.0180    0.0000 C    0  0  0  0  0  0  0  0  0  0  0  0
   -6.9428   -0.0866    0.0000 C    0  0  0  0  0  0  0  0  0  0  0  0
   -5.7672   -1.7046    0.0000 C    0  0  0  0  0  0  0  0  0  0  0  0
   -6.7617   -1.8091    0.0000 C    0  0  0  0  0  0  0  0  0  0  0  0
   -2.5388   -0.5000    0.0000 N    0  0  0  0  0  0  0  0  0  0  0  0
   -1.5878   -0.1910    0.0000 N    0  0  0  0  0  0  0  0  0  0  0  0
  1 27  1  0  0  0  0
  1  2  1  0  0  0  0
  1  6  2  0  0  0  0
  2  3  1  0  0  0  0
  2  4  1  0  0  0  0
  2  5  1  0  0  0  0
  6  7  1  0  0  0  0
  7  8  1  0  0  0  0
  7 26  1  0  0  0  0
  8 13  2  0  0  0  0
  8  9  1  0  0  0  0
  9 10  2  0  0  0  0
 10 11  1  0  0  0  0
 11 12  2  0  0  0  0
 12 13  1  0  0  0  0
 13 14  1  0  0  0  0
 14 15  2  0  0  0  0
 14 16  1  0  0  0  0
 14 21  1  0  0  0  0
 16 17  1  0  0  0  0
 16 19  1  0  0  0  0
 17 18  1  0  0  0  0
 19 20  1  0  0  0  0
 21 22  1  0  0  0  0
 21 24  1  0  0  0  0
 22 23  1  0  0  0  0
 24 25  1  0  0  0  0
 26 27  2  0  0  0  0
M  END
> <NMREDATA_VERSION>
1.1

> <NMREDATA_LEVEL>
0

> <NMREDATA_FORMULA>
C19H34N5OPSi

> <NMREDATA_SMILES>
CCN(P(=O)(c1ccccc1n1nnc(c1)[Si](C)(C)C)N(CC)CC)CC

> <NMREDATA_ASSIGNMENT>
P14, 27.82, 14

> <NMREDATA_1D_31P>
Larmor=121.49
27.82, L=P14

$$$$
