
 OpenBabel06112616462D

 47 52  0  0  0  0  0  0  0  0999 V2000
   -1.5679    1.4717    0.0000 O   0  0  0  0  0  0  0  0  0  0  0  0
   -0.7182    1.9623    0.0000 C   0  0  0  0  0  0  0  0  0  0  0  0
    0.9811    0.9811    0.0000 N   0  0  0  0  0  0  0  0  0  0  0  0
    0.9811    0.0000    0.0000 P   0  0  0  0  0  0  0  0  0  0  0  0
    1.9623    0.0000    0.0000 C   0  0  0  0  0  0  0  0  0  0  0  0
    2.4528    0.8497    0.0000 C   0  0  0  0  0  0  0  0  0  0  0  0
    3.4340    0.8497    0.0000 C   0  0  0  0  0  0  0  0  0  0  0  0
    3.9245    1.6994    0.0000 P   0  0  0  0  0  0  0  0  0  0  0  0
    4.7742    1.2088    0.0000 N   0  0  0  0  0  0  0  0  0  0  0  0
    4.7742    0.2277    0.0000 C   0  0  0  0  0  0  0  0  0  0  0  0
    3.9245   -0.2629    0.0000 O   0  0  0  0  0  0  0  0  0  0  0  0
    5.6239   -0.2629    0.0000 C   0  0  0  0  0  0  0  0  0  0  0  0
    6.4736    0.2277    0.0000 C   0  0  0  0  0  0  0  0  0  0  0  0
    7.3233   -0.2629    0.0000 C   0  0  0  0  0  0  0  0  0  0  0  0
    7.3233   -1.2440    0.0000 C   0  0  0  0  0  0  0  0  0  0  0  0
    6.4736   -1.7346    0.0000 C   0  0  0  0  0  0  0  0  0  0  0  0
    5.6239   -1.2440    0.0000 C   0  0  0  0  0  0  0  0  0  0  0  0
    4.4151    2.5491    0.0000 C   0  0  0  0  0  0  0  0  0  0  0  0
    3.9245    3.3987    0.0000 C   0  0  0  0  0  0  0  0  0  0  0  0
    4.4151    4.2484    0.0000 C   0  0  0  0  0  0  0  0  0  0  0  0
    5.3962    4.2484    0.0000 C   0  0  0  0  0  0  0  0  0  0  0  0
    5.8868    3.3987    0.0000 C   0  0  0  0  0  0  0  0  0  0  0  0
    5.3962    2.5491    0.0000 C   0  0  0  0  0  0  0  0  0  0  0  0
    3.0748    2.1899    0.0000 C   0  0  0  0  0  0  0  0  0  0  0  0
    2.2252    1.6994    0.0000 C   0  0  0  0  0  0  0  0  0  0  0  0
    1.3755    2.1899    0.0000 C   0  0  0  0  0  0  0  0  0  0  0  0
    1.3755    3.1711    0.0000 C   0  0  0  0  0  0  0  0  0  0  0  0
    2.2252    3.6616    0.0000 C   0  0  0  0  0  0  0  0  0  0  0  0
    3.0748    3.1711    0.0000 C   0  0  0  0  0  0  0  0  0  0  0  0
    0.9811   -0.9811    0.0000 C   0  0  0  0  0  0  0  0  0  0  0  0
    0.1314   -1.4717    0.0000 C   0  0  0  0  0  0  0  0  0  0  0  0
    0.1314   -2.4528    0.0000 C   0  0  0  0  0  0  0  0  0  0  0  0
    0.9811   -2.9434    0.0000 C   0  0  0  0  0  0  0  0  0  0  0  0
    1.8308   -2.4528    0.0000 C   0  0  0  0  0  0  0  0  0  0  0  0
    1.8308   -1.4717    0.0000 C   0  0  0  0  0  0  0  0  0  0  0  0
    0.0000    0.0000    0.0000 C   0  0  0  0  0  0  0  0  0  0  0  0
   -0.4906    0.8497    0.0000 C   0  0  0  0  0  0  0  0  0  0  0  0
   -1.4717    0.8497    0.0000 C   0  0  0  0  0  0  0  0  0  0  0  0
   -1.9623    0.0000    0.0000 C   0  0  0  0  0  0  0  0  0  0  0  0
   -1.4717   -0.8497    0.0000 C   0  0  0  0  0  0  0  0  0  0  0  0
   -0.4906   -0.8497    0.0000 C   0  0  0  0  0  0  0  0  0  0  0  0
   -0.7182    2.9434    0.0000 C   0  0  0  0  0  0  0  0  0  0  0  0
   -1.5679    3.4340    0.0000 C   0  0  0  0  0  0  0  0  0  0  0  0
   -1.5679    4.4151    0.0000 C   0  0  0  0  0  0  0  0  0  0  0  0
   -0.7182    4.9057    0.0000 C   0  0  0  0  0  0  0  0  0  0  0  0
    0.1314    4.4151    0.0000 C   0  0  0  0  0  0  0  0  0  0  0  0
    0.1314    3.4340    0.0000 C   0  0  0  0  0  0  0  0  0  0  0  0
  1  2  2  0  0  0  0
  2  3  1  0  0  0  0
  2 42  1  0  0  0  0
  3  4  2  0  0  0  0
  4  5  1  0  0  0  0
  4 30  1  0  0  0  0
  4 36  1  0  0  0  0
  5  6  1  0  0  0  0
  6  7  1  0  0  0  0
  7  8  1  0  0  0  0
  8  9  2  0  0  0  0
  8 18  1  0  0  0  0
  8 24  1  0  0  0  0
  9 10  1  0  0  0  0
 10 11  2  0  0  0  0
 10 12  1  0  0  0  0
 12 17  2  0  0  0  0
 12 13  1  0  0  0  0
 13 14  2  0  0  0  0
 14 15  1  0  0  0  0
 15 16  2  0  0  0  0
 16 17  1  0  0  0  0
 18 23  2  0  0  0  0
 18 19  1  0  0  0  0
 19 20  2  0  0  0  0
 20 21  1  0  0  0  0
 21 22  2  0  0  0  0
 22 23  1  0  0  0  0
 24 29  2  0  0  0  0
 24 25  1  0  0  0  0
 25 26  2  0  0  0  0
 26 27  1  0  0  0  0
 27 28  2  0  0  0  0
 28 29  1  0  0  0  0
 30 35  2  0  0  0  0
 30 31  1  0  0  0  0
 31 32  2  0  0  0  0
 32 33  1  0  0  0  0
 33 34  2  0  0  0  0
 34 35  1  0  0  0  0
 36 41  2  0  0  0  0
 36 37  1  0  0  0  0
 37 38  2  0  0  0  0
 38 39  1  0  0  0  0
 39 40  2  0  0  0  0
 40 41  1  0  0  0  0
 42 47  2  0  0  0  0
 42 43  1  0  0  0  0
 43 44  2  0  0  0  0
 44 45  1  0  0  0  0
 45 46  2  0  0  0  0
 46 47  1  0  0  0  0
M  END
> <NMREDATA_VERSION>
1.1

> <NMREDATA_LEVEL>
0

> <NMREDATA_SOLVENT>
CDCl3

> <NMREDATA_FORMULA>
C41H36N2O2P2

> <NMREDATA_SMILES>
O=C(c1ccccc1)N=P(c1ccccc1)(c1ccccc1)CCCP(=NC(=O)c1ccccc1)(c1ccccc1)c1ccccc1

> <NMREDATA_ASSIGNMENT>
P4, 23.51, 4
P8, 23.51, 8

> <NMREDATA_1D_31P>
Larmor=202
23.51, L=P4
23.51, L=P8

$$$$
