
 OpenBabel06112616462D

 60 65  0  0  1  0  0  0  0  0999 V2000
   -3.8235   -2.6115    0.0000 C   0  0  0  0  0  0  0  0  0  0  0  0
   -3.8235   -3.5674    0.0000 F   0  0  0  0  0  0  0  0  0  0  0  0
   -2.9957   -3.0895    0.0000 F   0  0  0  0  0  0  0  0  0  0  0  0
   -4.7794   -2.6115    0.0000 F   0  0  0  0  0  0  0  0  0  0  0  0
   -3.3456   -1.7837    0.0000 C   0  0  0  0  0  0  0  0  0  0  0  0
   -3.8235   -0.9559    0.0000 C   0  0  0  0  0  0  0  0  0  0  0  0
   -3.3456   -0.1281    0.0000 C   0  0  0  0  0  0  0  0  0  0  0  0
   -3.8235    0.6998    0.0000 C   0  0  0  0  0  0  0  0  0  0  0  0
   -3.8235    1.6556    0.0000 F   0  0  0  0  0  0  0  0  0  0  0  0
   -2.9957    1.1777    0.0000 F   0  0  0  0  0  0  0  0  0  0  0  0
   -4.7794    0.6998    0.0000 F   0  0  0  0  0  0  0  0  0  0  0  0
   -2.3897   -0.1281    0.0000 C   0  0  0  0  0  0  0  0  0  0  0  0
   -1.9118   -0.9559    0.0000 C   0  0  0  0  0  0  0  0  0  0  0  0
    0.0000   -0.9559    0.0000 P   0  0  0  0  0  0  0  0  0  0  0  0
    0.0000   -1.9118    0.0000 O   0  0  0  0  0  0  0  0  0  0  0  0
    1.9118   -0.9559    0.0000 C   0  0  0  0  0  0  0  0  0  0  0  0
    2.3897   -0.1281    0.0000 C   0  0  0  0  0  0  0  0  0  0  0  0
    3.3456   -0.1281    0.0000 C   0  0  0  0  0  0  0  0  0  0  0  0
    3.8235    0.6998    0.0000 C   0  0  0  0  0  0  0  0  0  0  0  0
    3.8235    1.6556    0.0000 F   0  0  0  0  0  0  0  0  0  0  0  0
    2.9957    1.1777    0.0000 F   0  0  0  0  0  0  0  0  0  0  0  0
    4.7794    0.6998    0.0000 F   0  0  0  0  0  0  0  0  0  0  0  0
    3.8235   -0.9559    0.0000 C   0  0  0  0  0  0  0  0  0  0  0  0
    3.3456   -1.7837    0.0000 C   0  0  0  0  0  0  0  0  0  0  0  0
    3.8235   -2.6115    0.0000 C   0  0  0  0  0  0  0  0  0  0  0  0
    4.6513   -3.0895    0.0000 F   0  0  0  0  0  0  0  0  0  0  0  0
    4.6513   -2.1336    0.0000 F   0  0  0  0  0  0  0  0  0  0  0  0
    3.3456   -3.4393    0.0000 F   0  0  0  0  0  0  0  0  0  0  0  0
    2.3897   -1.7837    0.0000 C   0  0  0  0  0  0  0  0  0  0  0  0
    0.0000    0.0000    0.0000 C   0  0  1  0  0  0  0  0  0  0  0  0
    0.8278    0.4779    0.0000 C   0  0  0  0  0  0  0  0  0  0  0  0
    0.8278    1.4338    0.0000 C   0  0  0  0  0  0  0  0  0  0  0  0
    1.6556    1.9118    0.0000 C   0  0  0  0  0  0  0  0  0  0  0  0
    2.4835    1.4338    0.0000 C   0  0  0  0  0  0  0  0  0  0  0  0
    2.4835    0.4779    0.0000 C   0  0  0  0  0  0  0  0  0  0  0  0
    1.6556    0.0000    0.0000 C   0  0  0  0  0  0  0  0  0  0  0  0
   -0.8278    0.4779    0.0000 C   0  0  0  0  0  0  0  0  0  0  0  0
   -0.8278    1.4338    0.0000 C   0  0  0  0  0  0  0  0  0  0  0  0
   -1.6556    1.9118    0.0000 C   0  0  0  0  0  0  0  0  0  0  0  0
   -2.4835    1.4338    0.0000 C   0  0  0  0  0  0  0  0  0  0  0  0
   -2.4835    0.4779    0.0000 C   0  0  0  0  0  0  0  0  0  0  0  0
   -1.6556    0.0000    0.0000 C   0  0  0  0  0  0  0  0  0  0  0  0
   -1.6556   -1.9118    0.0000 N   0  0  0  0  0  0  0  0  0  0  0  0
   -0.8278   -2.3897    0.0000 S   0  0  0  0  0  0  0  0  0  0  0  0
   -0.3499   -1.5619    0.0000 O   0  0  0  0  0  0  0  0  0  0  0  0
    0.0000   -2.8676    0.0000 O   0  0  0  0  0  0  0  0  0  0  0  0
   -1.3058   -3.2175    0.0000 C   0  0  0  0  0  0  0  0  0  0  0  0
   -2.2616   -3.2175    0.0000 C   0  0  0  0  0  0  0  0  0  0  0  0
   -2.7396   -2.3897    0.0000 C   0  0  0  0  0  0  0  0  0  0  0  0
   -2.7396   -4.0453    0.0000 C   0  0  0  0  0  0  0  0  0  0  0  0
   -3.6955   -4.0453    0.0000 C   0  0  0  0  0  0  0  0  0  0  0  0
   -2.2616   -4.8732    0.0000 C   0  0  0  0  0  0  0  0  0  0  0  0
   -1.3058   -4.8732    0.0000 C   0  0  0  0  0  0  0  0  0  0  0  0
   -0.8278   -5.7010    0.0000 C   0  0  0  0  0  0  0  0  0  0  0  0
   -0.8278   -4.0453    0.0000 C   0  0  0  0  0  0  0  0  0  0  0  0
    0.1281   -4.0453    0.0000 C   0  0  0  0  0  0  0  0  0  0  0  0
   -3.1938    2.0734    0.0000 O   0  0  0  0  0  0  0  0  0  0  0  0
   -2.8050    2.9467    0.0000 C   0  0  0  0  0  0  0  0  0  0  0  0
   -1.8544    2.8468    0.0000 O   0  0  0  0  0  0  0  0  0  0  0  0
   -2.3897   -1.7837    0.0000 C   0  0  0  0  0  0  0  0  0  0  0  0
  1  2  1  0  0  0  0
  1  3  1  0  0  0  0
  1  4  1  0  0  0  0
  1  5  1  0  0  0  0
  5 60  2  0  0  0  0
  5  6  1  0  0  0  0
  6  7  2  0  0  0  0
  7  8  1  0  0  0  0
  7 12  1  0  0  0  0
  8  9  1  0  0  0  0
  8 10  1  0  0  0  0
  8 11  1  0  0  0  0
 12 13  2  0  0  0  0
 13 14  1  0  0  0  0
 13 60  1  0  0  0  0
 14 15  2  0  0  0  0
 14 16  1  0  0  0  0
 16 29  2  0  0  0  0
 16 17  1  0  0  0  0
 17 18  2  0  0  0  0
 18 19  1  0  0  0  0
 18 23  1  0  0  0  0
 19 20  1  0  0  0  0
 19 21  1  0  0  0  0
 19 22  1  0  0  0  0
 23 24  2  0  0  0  0
 24 25  1  0  0  0  0
 24 29  1  0  0  0  0
 25 26  1  0  0  0  0
 25 27  1  0  0  0  0
 25 28  1  0  0  0  0
 30 14  1  6  0  0  0
 30 31  1  0  0  0  0
 30 37  1  0  0  0  0
 31 36  2  0  0  0  0
 31 32  1  0  0  0  0
 32 33  2  0  0  0  0
 33 34  1  0  0  0  0
 34 35  2  0  0  0  0
 35 36  1  0  0  0  0
 37 42  2  0  0  0  0
 37 38  1  0  0  0  0
 38 39  2  0  0  0  0
 39 59  1  0  0  0  0
 39 40  1  0  0  0  0
 40 41  2  0  0  0  0
 40 57  1  0  0  0  0
 41 42  1  0  0  0  0
 42 43  1  0  0  0  0
 43 44  1  0  0  0  0
 44 45  2  0  0  0  0
 44 46  2  0  0  0  0
 44 47  1  0  0  0  0
 47 55  2  0  0  0  0
 47 48  1  0  0  0  0
 48 49  1  0  0  0  0
 48 50  2  0  0  0  0
 50 51  1  0  0  0  0
 50 52  1  0  0  0  0
 52 53  2  0  0  0  0
 53 54  1  0  0  0  0
 53 55  1  0  0  0  0
 55 56  1  0  0  0  0
 57 58  1  0  0  0  0
 58 59  1  0  0  0  0
M  END
> <NMREDATA_VERSION>
1.1

> <NMREDATA_LEVEL>
0

> <NMREDATA_SOLVENT>
CDCl3

> <NMREDATA_FORMULA>
C40H30F12NO5PS

> <NMREDATA_SMILES>
Cc1cc(C)c(c(c1C)S(=O)(=O)Nc1cc2OCOc2cc1[C@@H](P(=O)(c1cc(cc(c1)C(F)(F)F)C(F)(F)F)c1cc(cc(c1)C(F)(F)F)C(F)(F)F)c1ccccc1)C

> <NMREDATA_ASSIGNMENT>
P14, 30.12, 14

> <NMREDATA_1D_31P>
Larmor=202
30.12, L=P14

$$$$
