
 OpenBabel06112616482D

 27 29  0  0  0  0  0  0  0  0999 V2000
    2.4359   -0.1305    0.0000 C   0  0  0  0  0  0  0  0  0  0  0  0
    1.4615   -0.1305    0.0000 C   0  0  0  0  0  0  0  0  0  0  0  0
    0.9743    0.7133    0.0000 C   0  0  0  0  0  0  0  0  0  0  0  0
    0.9743   -0.9743    0.0000 O   0  0  0  0  0  0  0  0  0  0  0  0
    0.0000   -0.9743    0.0000 P   0  0  0  0  0  0  0  0  0  0  0  0
    0.0000   -1.9487    0.0000 C   0  0  0  0  0  0  0  0  0  0  0  0
    0.8438   -2.4359    0.0000 C   0  0  0  0  0  0  0  0  0  0  0  0
    1.6876   -1.9487    0.0000 O   0  0  0  0  0  0  0  0  0  0  0  0
    1.3310   -3.2797    0.0000 C   0  0  0  0  0  0  0  0  0  0  0  0
    0.3310   -3.2799    0.0000 O   0  0  0  0  0  0  0  0  0  0  0  0
    0.8439   -4.1235    0.0000 C   0  0  0  0  0  0  0  0  0  0  0  0
    1.3313   -4.9678    0.0000 C   0  0  0  0  0  0  0  0  0  0  0  0
    0.8438   -5.8119    0.0000 C   0  0  0  0  0  0  0  0  0  0  0  0
   -0.1306   -5.8119    0.0000 C   0  0  0  0  0  0  0  0  0  0  0  0
   -0.6180   -4.9675    0.0000 C   0  0  0  0  0  0  0  0  0  0  0  0
   -0.1309   -4.1237    0.0000 C   0  0  0  0  0  0  0  0  0  0  0  0
    2.7932   -4.1238    0.0000 C   0  0  0  0  0  0  0  0  0  0  0  0
    2.3058   -3.2795    0.0000 C   0  0  0  0  0  0  0  0  0  0  0  0
    2.7933   -2.4354    0.0000 C   0  0  0  0  0  0  0  0  0  0  0  0
    3.7677   -2.4354    0.0000 C   0  0  0  0  0  0  0  0  0  0  0  0
    4.2551   -3.2798    0.0000 C   0  0  0  0  0  0  0  0  0  0  0  0
    3.7680   -4.1236    0.0000 C   0  0  0  0  0  0  0  0  0  0  0  0
   -0.9743   -0.9743    0.0000 O   0  0  0  0  0  0  0  0  0  0  0  0
   -1.4615   -1.8182    0.0000 C   0  0  0  0  0  0  0  0  0  0  0  0
   -0.9743   -2.6620    0.0000 C   0  0  0  0  0  0  0  0  0  0  0  0
   -2.4359   -1.8182    0.0000 C   0  0  0  0  0  0  0  0  0  0  0  0
    0.0000    0.0000    0.0000 O   0  0  0  0  0  0  0  0  0  0  0  0
  1  2  1  0  0  0  0
  2  3  1  0  0  0  0
  2  4  1  0  0  0  0
  4  5  1  0  0  0  0
  5  6  1  0  0  0  0
  5 23  1  0  0  0  0
  5 27  2  0  0  0  0
  6  7  1  0  0  0  0
  7  8  2  0  0  0  0
  7  9  1  0  0  0  0
  9 18  1  0  0  0  0
  9 10  1  0  0  0  0
  9 11  1  0  0  0  0
 11 16  2  0  0  0  0
 11 12  1  0  0  0  0
 12 13  2  0  0  0  0
 12 17  1  0  0  0  0
 13 14  1  0  0  0  0
 14 15  2  0  0  0  0
 15 16  1  0  0  0  0
 17 22  2  0  0  0  0
 17 18  1  0  0  0  0
 18 19  2  0  0  0  0
 19 20  1  0  0  0  0
 20 21  2  0  0  0  0
 21 22  1  0  0  0  0
 23 24  1  0  0  0  0
 24 25  1  0  0  0  0
 24 26  1  0  0  0  0
M  END
> <NMREDATA_VERSION>
1.1

> <NMREDATA_LEVEL>
0

> <NMREDATA_SOLVENT>
CDCl3

> <NMREDATA_FORMULA>
C21H25O5P

> <NMREDATA_SMILES>
CC(OP(=O)(CC(=O)C1(O)c2ccccc2-c2c1cccc2)OC(C)C)C

> <NMREDATA_ASSIGNMENT>
P5, 21.29, 5

> <NMREDATA_1D_31P>
Larmor=162
21.29, L=P5

$$$$
