
 OpenBabel06112616462D

 35 38  0  0  1  0  0  0  0  0999 V2000
    1.0000   -4.0000    0.0000 C    0  0  0  0  0  0  0  0  0  0  0  0
    1.0000   -3.0000    0.0000 C    0  0  0  0  0  0  0  0  0  0  0  0
    0.1340   -2.5000    0.0000 C    0  0  0  0  0  0  0  0  0  0  0  0
    0.1340   -1.5000    0.0000 C    0  0  0  0  0  0  0  0  0  0  0  0
    1.0000   -1.0000    0.0000 C    0  0  0  0  0  0  0  0  0  0  0  0
    1.0000    0.0000    0.0000 S    0  0  0  0  0  0  0  0  0  0  0  0
    2.0000    0.0000    0.0000 O    0  0  0  0  0  0  0  0  0  0  0  0
    1.0000    1.0000    0.0000 O    0  0  0  0  0  0  0  0  0  0  0  0
    0.0000    0.0000    0.0000 N    0  0  0  0  0  0  0  0  0  0  0  0
   -0.5000    0.8660    0.0000 C    0  0  3  0  0  0  0  0  0  0  0  0
    0.0000    1.7321    0.0000 C    0  0  0  0  0  0  0  0  0  0  0  0
   -0.5000    2.5981    0.0000 Cl   0  0  0  0  0  0  0  0  0  0  0  0
   -1.5000    0.8660    0.0000 C    0  0  0  0  0  0  0  0  0  0  0  0
   -2.0000    0.0000    0.0000 C    0  0  0  0  0  0  0  0  0  0  0  0
   -3.0000    0.0000    0.0000 O    0  0  0  0  0  0  0  0  0  0  0  0
   -3.5000   -0.8660    0.0000 P    0  0  0  0  0  0  0  0  0  0  0  0
   -2.6340   -1.3660    0.0000 O    0  0  0  0  0  0  0  0  0  0  0  0
   -2.6340   -2.3660    0.0000 C    0  0  0  0  0  0  0  0  0  0  0  0
   -3.5000   -2.8660    0.0000 C    0  0  0  0  0  0  0  0  0  0  0  0
   -3.5000   -3.8660    0.0000 C    0  0  0  0  0  0  0  0  0  0  0  0
   -2.6340   -4.3660    0.0000 C    0  0  0  0  0  0  0  0  0  0  0  0
   -1.7679   -3.8660    0.0000 C    0  0  0  0  0  0  0  0  0  0  0  0
   -1.7679   -2.8660    0.0000 C    0  0  0  0  0  0  0  0  0  0  0  0
   -4.0000   -1.7321    0.0000 O    0  0  0  0  0  0  0  0  0  0  0  0
   -5.0000   -1.7321    0.0000 C    0  0  0  0  0  0  0  0  0  0  0  0
   -5.5000   -0.8660    0.0000 C    0  0  0  0  0  0  0  0  0  0  0  0
   -6.5000   -0.8660    0.0000 C    0  0  0  0  0  0  0  0  0  0  0  0
   -7.0000   -1.7321    0.0000 C    0  0  0  0  0  0  0  0  0  0  0  0
   -6.5000   -2.5981    0.0000 C    0  0  0  0  0  0  0  0  0  0  0  0
   -5.5000   -2.5981    0.0000 C    0  0  0  0  0  0  0  0  0  0  0  0
   -4.3660   -0.3660    0.0000 O    0  0  0  0  0  0  0  0  0  0  0  0
   -1.5000   -0.8660    0.0000 C    0  0  0  0  0  0  0  0  0  0  0  0
   -0.5000   -0.8660    0.0000 C    0  0  0  0  0  0  0  0  0  0  0  0
    1.8660   -1.5000    0.0000 C    0  0  0  0  0  0  0  0  0  0  0  0
    1.8660   -2.5000    0.0000 C    0  0  0  0  0  0  0  0  0  0  0  0
  1  2  1  0  0  0  0
  2 35  2  0  0  0  0
  2  3  1  0  0  0  0
  3  4  2  0  0  0  0
  4  5  1  0  0  0  0
  5  6  1  0  0  0  0
  5 34  2  0  0  0  0
  6  7  2  0  0  0  0
  6  8  2  0  0  0  0
  6  9  1  0  0  0  0
  9 33  1  0  0  0  0
  9 10  1  0  0  0  0
 10 11  1  0  0  0  0
 10 13  1  0  0  0  0
 11 12  1  0  0  0  0
 13 14  1  0  0  0  0
 14 15  1  0  0  0  0
 14 32  2  0  0  0  0
 15 16  1  0  0  0  0
 16 17  1  0  0  0  0
 16 24  1  0  0  0  0
 16 31  2  0  0  0  0
 17 18  1  0  0  0  0
 18 23  2  0  0  0  0
 18 19  1  0  0  0  0
 19 20  2  0  0  0  0
 20 21  1  0  0  0  0
 21 22  2  0  0  0  0
 22 23  1  0  0  0  0
 24 25  1  0  0  0  0
 25 30  2  0  0  0  0
 25 26  1  0  0  0  0
 26 27  2  0  0  0  0
 27 28  1  0  0  0  0
 28 29  2  0  0  0  0
 29 30  1  0  0  0  0
 32 33  1  0  0  0  0
 34 35  1  0  0  0  0
M  END
> <NMREDATA_VERSION>
1.1

> <NMREDATA_LEVEL>
0

> <NMREDATA_SOLVENT>
CDCl3

> <NMREDATA_FORMULA>
C25H25ClNO6PS

> <NMREDATA_SMILES>
ClCC1CC(=CCN1S(=O)(=O)c1ccc(cc1)C)OP(=O)(Oc1ccccc1)Oc1ccccc1

> <NMREDATA_ASSIGNMENT>
P16, -17.30, 16

> <NMREDATA_1D_31P>
Larmor=121
-17.30, L=P16

$$$$
