
 OpenBabel06112616462D

 52 60  0  0  0  0  0  0  0  0999 V2000
    0.2899    0.9399    0.0000 C   0  0  0  0  0  0  0  0  0  0  0  0
    1.2489    1.1588    0.0000 C   0  0  0  0  0  0  0  0  0  0  0  0
    1.9179    0.4377    0.0000 C   0  0  0  0  0  0  0  0  0  0  0  0
    1.6280   -0.5022    0.0000 C   0  0  0  0  0  0  0  0  0  0  0  0
    0.6690   -0.7210    0.0000 C   0  0  0  0  0  0  0  0  0  0  0  0
    0.3791   -1.6609    0.0000 C   0  0  0  0  0  0  0  0  0  0  0  0
    1.0481   -2.3820    0.0000 C   0  0  0  0  0  0  0  0  0  0  0  0
    0.7582   -3.3219    0.0000 C   0  0  0  0  0  0  0  0  0  0  0  0
   -0.2007   -3.5408    0.0000 C   0  0  0  0  0  0  0  0  0  0  0  0
   -0.4907   -4.4807    0.0000 C   0  0  0  0  0  0  0  0  0  0  0  0
   -1.4496   -4.6995    0.0000 C   0  0  0  0  0  0  0  0  0  0  0  0
   -2.1186   -3.9785    0.0000 C   0  0  0  0  0  0  0  0  0  0  0  0
   -1.8287   -3.0386    0.0000 C   0  0  0  0  0  0  0  0  0  0  0  0
   -0.8698   -2.8197    0.0000 C   0  0  0  0  0  0  0  0  0  0  0  0
    1.4272   -4.0429    0.0000 C   0  0  0  0  0  0  0  0  0  0  0  0
    2.3862   -3.8240    0.0000 C   0  0  0  0  0  0  0  0  0  0  0  0
    3.0552   -4.5451    0.0000 C   0  0  0  0  0  0  0  0  0  0  0  0
    2.7653   -5.4850    0.0000 C   0  0  0  0  0  0  0  0  0  0  0  0
    1.8063   -5.7039    0.0000 C   0  0  0  0  0  0  0  0  0  0  0  0
    1.1373   -4.9828    0.0000 C   0  0  0  0  0  0  0  0  0  0  0  0
    2.0071   -2.1631    0.0000 C   0  0  0  0  0  0  0  0  0  0  0  0
    2.5612   -2.9758    0.0000 O   0  0  0  0  0  0  0  0  0  0  0  0
    3.5420   -3.0493    0.0000 P   0  0  0  0  0  0  0  0  0  0  0  0
    4.2607   -4.8805    0.0000 N   0  0  0  0  0  0  0  0  0  0  0  0
    3.6474   -5.6495    0.0000 C   0  0  0  0  0  0  0  0  0  0  0  0
    5.2333   -5.0271    0.0000 C   0  0  0  0  0  0  0  0  0  0  0  0
    4.2110   -2.3283    0.0000 O   0  0  0  0  0  0  0  0  0  0  0  0
    4.0644   -1.3556    0.0000 C   0  0  0  0  0  0  0  0  0  0  0  0
    4.9163   -0.8638    0.0000 C   0  0  0  0  0  0  0  0  0  0  0  0
    5.7681   -1.3556    0.0000 C   0  0  0  0  0  0  0  0  0  0  0  0
    5.7681   -2.3393    0.0000 C   0  0  0  0  0  0  0  0  0  0  0  0
    6.6199   -2.8311    0.0000 C   0  0  0  0  0  0  0  0  0  0  0  0
    6.6199   -3.8147    0.0000 C   0  0  0  0  0  0  0  0  0  0  0  0
    5.7681   -4.3065    0.0000 C   0  0  0  0  0  0  0  0  0  0  0  0
    4.9163   -3.8147    0.0000 C   0  0  0  0  0  0  0  0  0  0  0  0
    4.9163   -2.8311    0.0000 C   0  0  0  0  0  0  0  0  0  0  0  0
    6.6199   -0.8638    0.0000 C   0  0  0  0  0  0  0  0  0  0  0  0
    6.6199    0.1198    0.0000 C   0  0  0  0  0  0  0  0  0  0  0  0
    7.4717    0.6116    0.0000 C   0  0  0  0  0  0  0  0  0  0  0  0
    8.3236    0.1198    0.0000 C   0  0  0  0  0  0  0  0  0  0  0  0
    8.3236   -0.8638    0.0000 C   0  0  0  0  0  0  0  0  0  0  0  0
    7.4717   -1.3556    0.0000 C   0  0  0  0  0  0  0  0  0  0  0  0
    4.9163    0.1198    0.0000 C   0  0  0  0  0  0  0  0  0  0  0  0
    4.0644    0.6116    0.0000 C   0  0  0  0  0  0  0  0  0  0  0  0
    3.2126    0.1198    0.0000 C   0  0  0  0  0  0  0  0  0  0  0  0
    3.2126   -0.8638    0.0000 C   0  0  0  0  0  0  0  0  0  0  0  0
    2.2970   -1.2232    0.0000 C   0  0  0  0  0  0  0  0  0  0  0  0
    2.3608    0.6116    0.0000 C   0  0  0  0  0  0  0  0  0  0  0  0
    2.3608    1.5952    0.0000 C   0  0  0  0  0  0  0  0  0  0  0  0
    3.2126    2.0870    0.0000 C   0  0  0  0  0  0  0  0  0  0  0  0
    4.0644    1.5952    0.0000 C   0  0  0  0  0  0  0  0  0  0  0  0
    0.0000    0.0000    0.0000 C   0  0  0  0  0  0  0  0  0  0  0  0
  1 52  1  0  0  0  0
  1  2  1  0  0  0  0
  2  3  1  0  0  0  0
  3  4  1  0  0  0  0
  4 47  2  0  0  0  0
  4  5  1  0  0  0  0
  5  6  2  0  0  0  0
  5 52  1  0  0  0  0
  6  7  1  0  0  0  0
  7  8  1  0  0  0  0
  7 21  2  0  0  0  0
  8  9  1  0  0  0  0
  8 15  1  0  0  0  0
  9 14  2  0  0  0  0
  9 10  1  0  0  0  0
 10 11  2  0  0  0  0
 11 12  1  0  0  0  0
 12 13  2  0  0  0  0
 13 14  1  0  0  0  0
 15 20  2  0  0  0  0
 15 16  1  0  0  0  0
 16 17  2  0  0  0  0
 17 18  1  0  0  0  0
 18 19  2  0  0  0  0
 19 20  1  0  0  0  0
 21 47  1  0  0  0  0
 21 22  1  0  0  0  0
 22 23  1  0  0  0  0
 23 24  1  0  0  0  0
 23 27  1  0  0  0  0
 24 25  1  0  0  0  0
 24 26  1  0  0  0  0
 27 28  1  0  0  0  0
 28 46  2  0  0  0  0
 28 29  1  0  0  0  0
 29 30  1  0  0  0  0
 29 43  2  0  0  0  0
 30 31  1  0  0  0  0
 30 37  1  0  0  0  0
 31 36  2  0  0  0  0
 31 32  1  0  0  0  0
 32 33  2  0  0  0  0
 33 34  1  0  0  0  0
 34 35  2  0  0  0  0
 35 36  1  0  0  0  0
 37 42  2  0  0  0  0
 37 38  1  0  0  0  0
 38 39  2  0  0  0  0
 39 40  1  0  0  0  0
 40 41  2  0  0  0  0
 41 42  1  0  0  0  0
 43 44  1  0  0  0  0
 44 51  1  0  0  0  0
 44 45  2  0  0  0  0
 45 46  1  0  0  0  0
 45 48  1  0  0  0  0
 46 47  1  0  0  0  0
 48 49  1  0  0  0  0
 49 50  1  0  0  0  0
 50 51  1  0  0  0  0
M  END
> <NMREDATA_VERSION>
1.1

> <NMREDATA_LEVEL>
0

> <NMREDATA_SOLVENT>
CDCl3

> <NMREDATA_FORMULA>
C48H46NO2P

> <NMREDATA_SMILES>
CN(p1oc2c(cc3c(c2c2c(o1)c(cc1c2CCCC1)C(c1ccccc1)c1ccccc1)CCCC3)C(c1ccccc1)c1ccccc1)C

> <NMREDATA_ASSIGNMENT>
P23, 141.40, 23

> <NMREDATA_1D_31P>
Larmor=162
141.40, L=P23

$$$$
