
 OpenBabel06112616452D

 29 32  0  0  0  0  0  0  0  0999 V2000
   -1.8280   -3.1480    0.0000 C   0  0  0  0  0  0  0  0  0  0  0  0
   -0.8570   -3.1548    0.0000 C   0  0  0  0  0  0  0  0  0  0  0  0
   -0.3656   -2.3174    0.0000 C   0  0  0  0  0  0  0  0  0  0  0  0
   -0.8452   -1.4730    0.0000 C   0  0  0  0  0  0  0  0  0  0  0  0
   -0.0008   -0.9935    0.0000 C   0  0  0  0  0  0  0  0  0  0  0  0
    0.8401   -1.4790    0.0000 C   0  0  0  0  0  0  0  0  0  0  0  0
    0.8367   -2.4500    0.0000 C   0  0  0  0  0  0  0  0  0  0  0  0
    1.7857   -2.6552    0.0000 C   0  0  0  0  0  0  0  0  0  0  0  0
    2.0825   -3.5797    0.0000 C   0  0  0  0  0  0  0  0  0  0  0  0
    1.4303   -4.2990    0.0000 C   0  0  0  0  0  0  0  0  0  0  0  0
    1.6941   -0.9939    0.0000 C   0  0  0  0  0  0  0  0  0  0  0  0
    2.5485   -0.5086    0.0000 C   0  0  0  0  0  0  0  0  0  0  0  0
    2.5493    0.4849    0.0000 C   0  0  0  0  0  0  0  0  0  0  0  0
    3.3904    0.9700    0.0000 C   0  0  0  0  0  0  0  0  0  0  0  0
    3.3908    1.9410    0.0000 C   0  0  0  0  0  0  0  0  0  0  0  0
    4.2320    2.4262    0.0000 C   0  0  0  0  0  0  0  0  0  0  0  0
    5.0727    1.9403    0.0000 C   0  0  0  0  0  0  0  0  0  0  0  0
    5.0723    0.9693    0.0000 C   0  0  0  0  0  0  0  0  0  0  0  0
    4.2311    0.4842    0.0000 C   0  0  0  0  0  0  0  0  0  0  0  0
    1.7084    0.9704    0.0000 S   0  0  0  0  0  0  0  0  0  0  0  0
    0.8541    0.4851    0.0000 C   0  0  0  0  0  0  0  0  0  0  0  0
    0.0000    0.0000    0.0000 P   0  0  3  0  0  0  0  0  0  0  0  0
   -0.8487    0.4945    0.0000 C   0  0  0  0  0  0  0  0  0  0  0  0
   -1.8102    0.2940    0.0000 C   0  0  0  0  0  0  0  0  0  0  0  0
   -2.4646    1.0265    0.0000 C   0  0  0  0  0  0  0  0  0  0  0  0
   -2.1574    1.9595    0.0000 C   0  0  0  0  0  0  0  0  0  0  0  0
   -1.1958    2.1599    0.0000 C   0  0  0  0  0  0  0  0  0  0  0  0
   -0.5415    1.4274    0.0000 C   0  0  0  0  0  0  0  0  0  0  0  0
   -0.8695   -0.4939    0.0000 O   0  0  0  0  0  0  0  0  0  0  0  0
  1  2  1  0  0  0  0
  2  3  1  0  0  0  0
  3  4  1  0  0  0  0
  4  5  1  0  0  0  0
  5 22  1  0  0  0  0
  5  6  2  0  0  0  0
  6  7  1  0  0  0  0
  6 11  1  0  0  0  0
  7  8  1  0  0  0  0
  8  9  1  0  0  0  0
  9 10  1  0  0  0  0
 11 21  2  0  0  0  0
 11 12  1  0  0  0  0
 12 13  2  0  0  0  0
 13 14  1  0  0  0  0
 13 20  1  0  0  0  0
 14 19  2  0  0  0  0
 14 15  1  0  0  0  0
 15 16  2  0  0  0  0
 16 17  1  0  0  0  0
 17 18  2  0  0  0  0
 18 19  1  0  0  0  0
 20 21  1  0  0  0  0
 21 22  1  0  0  0  0
 22 23  1  0  0  0  0
 22 29  2  0  0  0  0
 23 28  2  0  0  0  0
 23 24  1  0  0  0  0
 24 25  2  0  0  0  0
 25 26  1  0  0  0  0
 26 27  2  0  0  0  0
 27 28  1  0  0  0  0
M  END
> <NMREDATA_VERSION>
1.1

> <NMREDATA_LEVEL>
0

> <NMREDATA_SOLVENT>
CDCl3

> <NMREDATA_FORMULA>
C26H29OPS

> <NMREDATA_SMILES>
CCCCC1=C(CCCC)P(=O)(c2c1cc(s2)c1ccccc1)c1ccccc1

> <NMREDATA_ASSIGNMENT>
P22, 32.00, 22

> <NMREDATA_1D_31P>
Larmor=162
32.00, L=P22

$$$$
