
 OpenBabel06112616442D

 28 30  0  0  1  0  0  0  0  0999 V2000
    1.4516   -3.4820    0.0000 O    0  0  0  0  0  0  0  0  0  0  0  0
    0.9677   -2.6439    0.0000 C    0  0  0  0  0  0  0  0  0  0  0  0
    0.0000   -2.6439    0.0000 C    0  0  0  0  0  0  0  0  0  0  0  0
   -0.4839   -1.8058    0.0000 C    0  0  0  0  0  0  0  0  0  0  0  0
   -1.4516   -1.8058    0.0000 C    0  0  0  0  0  0  0  0  0  0  0  0
   -1.9355   -2.6439    0.0000 C    0  0  0  0  0  0  0  0  0  0  0  0
   -2.9032   -2.6439    0.0000 C    0  0  0  0  0  0  0  0  0  0  0  0
   -3.3871   -1.8058    0.0000 C    0  0  0  0  0  0  0  0  0  0  0  0
   -4.3548   -1.8058    0.0000 Br   0  0  0  0  0  0  0  0  0  0  0  0
   -2.9032   -0.9677    0.0000 C    0  0  0  0  0  0  0  0  0  0  0  0
   -1.9355   -0.9677    0.0000 C    0  0  0  0  0  0  0  0  0  0  0  0
    0.0000   -0.9677    0.0000 C    0  0  0  0  0  0  0  0  0  0  0  0
    0.9677   -0.9677    0.0000 C    0  0  2  0  0  0  0  0  0  0  0  0
    2.6439    0.0000    0.0000 C    0  0  0  0  0  0  0  0  0  0  0  0
    2.6439    0.9677    0.0000 C    0  0  0  0  0  0  0  0  0  0  0  0
    3.4820    1.4516    0.0000 C    0  0  0  0  0  0  0  0  0  0  0  0
    4.3201    0.9677    0.0000 C    0  0  0  0  0  0  0  0  0  0  0  0
    4.3201    0.0000    0.0000 C    0  0  0  0  0  0  0  0  0  0  0  0
    3.4820   -0.4839    0.0000 C    0  0  0  0  0  0  0  0  0  0  0  0
    0.9677    0.0000    0.0000 P    0  0  0  0  0  0  0  0  0  0  0  0
    1.9355    0.0000    0.0000 O    0  0  0  0  0  0  0  0  0  0  0  0
    0.9677    0.9677    0.0000 O    0  0  0  0  0  0  0  0  0  0  0  0
    1.8058    1.4516    0.0000 C    0  0  0  0  0  0  0  0  0  0  0  0
    1.8058    2.4194    0.0000 C    0  0  0  0  0  0  0  0  0  0  0  0
    0.0000    0.0000    0.0000 O    0  0  0  0  0  0  0  0  0  0  0  0
   -0.4839    0.8381    0.0000 C    0  0  0  0  0  0  0  0  0  0  0  0
    0.0000    1.6762    0.0000 C    0  0  0  0  0  0  0  0  0  0  0  0
    1.4516   -1.8058    0.0000 O    0  0  0  0  0  0  0  0  0  0  0  0
  1  2  2  0  0  0  0
  2 28  1  0  0  0  0
  2  3  1  0  0  0  0
  3  4  2  0  0  0  0
  4  5  1  0  0  0  0
  4 12  1  0  0  0  0
  5 11  2  0  0  0  0
  5  6  1  0  0  0  0
  6  7  2  0  0  0  0
  7  8  1  0  0  0  0
  8  9  1  0  0  0  0
  8 10  2  0  0  0  0
 10 11  1  0  0  0  0
 12 13  1  0  0  0  0
 13 14  1  0  0  0  0
 13 20  1  6  0  0  0
 13 28  1  0  0  0  0
 14 19  2  0  0  0  0
 14 15  1  0  0  0  0
 15 16  2  0  0  0  0
 16 17  1  0  0  0  0
 17 18  2  0  0  0  0
 18 19  1  0  0  0  0
 20 21  2  0  0  0  0
 20 22  1  0  0  0  0
 20 25  1  0  0  0  0
 22 23  1  0  0  0  0
 23 24  1  0  0  0  0
 25 26  1  0  0  0  0
 26 27  1  0  0  0  0
M  END
> <NMREDATA_VERSION>
1.1

> <NMREDATA_LEVEL>
0

> <NMREDATA_SOLVENT>
CDCl3

> <NMREDATA_FORMULA>
C21H22BrO5P

> <NMREDATA_SMILES>
CCOP(=O)([C@@]1(OC(=O)C=C(C1)c1ccc(cc1)Br)c1ccccc1)OCC

> <NMREDATA_ASSIGNMENT>
P20, 16.79, 20

> <NMREDATA_1D_31P>
Larmor=202
16.79, L=P20

$$$$
