
 OpenBabel06112616462D

 59 65  0  0  0  0  0  0  0  0999 V2000
   -1.0637    6.4158    0.0000 C   0  0  0  0  0  0  0  0  0  0  0  0
   -0.9332    5.4243    0.0000 C   0  0  0  0  0  0  0  0  0  0  0  0
   -0.1398    6.0331    0.0000 C   0  0  0  0  0  0  0  0  0  0  0  0
   -1.9246    5.2938    0.0000 C   0  0  0  0  0  0  0  0  0  0  0  0
   -0.3244    4.6310    0.0000 C   0  0  0  0  0  0  0  0  0  0  0  0
   -0.7071    3.7071    0.0000 C   0  0  0  0  0  0  0  0  0  0  0  0
   -1.7071    3.7071    0.0000 C   0  0  0  0  0  0  0  0  0  0  0  0
   -2.4142    3.0000    0.0000 C   0  0  0  0  0  0  0  0  0  0  0  0
   -3.3801    3.2588    0.0000 C   0  0  0  0  0  0  0  0  0  0  0  0
   -4.0872    2.5517    0.0000 C   0  0  0  0  0  0  0  0  0  0  0  0
   -3.8284    1.5858    0.0000 C   0  0  0  0  0  0  0  0  0  0  0  0
   -4.5355    0.8787    0.0000 C   0  0  0  0  0  0  0  0  0  0  0  0
   -4.2767   -0.0872    0.0000 C   0  0  0  0  0  0  0  0  0  0  0  0
   -3.5696   -0.7944    0.0000 F   0  0  0  0  0  0  0  0  0  0  0  0
   -3.3108    0.1716    0.0000 F   0  0  0  0  0  0  0  0  0  0  0  0
   -4.9838   -0.7944    0.0000 F   0  0  0  0  0  0  0  0  0  0  0  0
   -5.5015    1.1375    0.0000 C   0  0  0  0  0  0  0  0  0  0  0  0
   -5.7603    2.1034    0.0000 C   0  0  0  0  0  0  0  0  0  0  0  0
   -6.7262    2.3622    0.0000 C   0  0  0  0  0  0  0  0  0  0  0  0
   -7.6921    2.1034    0.0000 F   0  0  0  0  0  0  0  0  0  0  0  0
   -6.9850    1.3963    0.0000 F   0  0  0  0  0  0  0  0  0  0  0  0
   -6.9850    3.3282    0.0000 F   0  0  0  0  0  0  0  0  0  0  0  0
   -5.0532    2.8105    0.0000 C   0  0  0  0  0  0  0  0  0  0  0  0
   -3.6390    4.2247    0.0000 C   0  0  0  0  0  0  0  0  0  0  0  0
   -2.9319    4.9319    0.0000 C   0  0  0  0  0  0  0  0  0  0  0  0
   -3.1907    5.8978    0.0000 C   0  0  0  0  0  0  0  0  0  0  0  0
   -2.4836    6.6049    0.0000 C   0  0  0  0  0  0  0  0  0  0  0  0
   -1.5176    6.3461    0.0000 C   0  0  0  0  0  0  0  0  0  0  0  0
   -1.2588    5.3801    0.0000 C   0  0  0  0  0  0  0  0  0  0  0  0
   -1.9659    4.6730    0.0000 C   0  0  0  0  0  0  0  0  0  0  0  0
   -2.4142    2.0000    0.0000 O   0  0  0  0  0  0  0  0  0  0  0  0
   -1.7071    1.2929    0.0000 P   0  0  3  0  0  0  0  0  0  0  0  0
   -2.5005    0.6841    0.0000 O   0  0  0  0  0  0  0  0  0  0  0  0
   -1.5766    0.3014    0.0000 O   0  0  0  0  0  0  0  0  0  0  0  0
   -0.7071    1.2929    0.0000 O   0  0  0  0  0  0  0  0  0  0  0  0
    0.0000    2.0000    0.0000 C   0  0  0  0  0  0  0  0  0  0  0  0
    0.0000    3.0000    0.0000 C   0  0  0  0  0  0  0  0  0  0  0  0
    0.8660    3.5000    0.0000 C   0  0  0  0  0  0  0  0  0  0  0  0
    0.8660    4.5000    0.0000 C   0  0  0  0  0  0  0  0  0  0  0  0
    1.7321    5.0000    0.0000 C   0  0  0  0  0  0  0  0  0  0  0  0
    2.5981    4.5000    0.0000 C   0  0  0  0  0  0  0  0  0  0  0  0
    2.5981    3.5000    0.0000 C   0  0  0  0  0  0  0  0  0  0  0  0
    1.7321    3.0000    0.0000 C   0  0  0  0  0  0  0  0  0  0  0  0
    1.7321    2.0000    0.0000 C   0  0  0  0  0  0  0  0  0  0  0  0
    0.8660    1.5000    0.0000 C   0  0  0  0  0  0  0  0  0  0  0  0
    0.8660    0.5000    0.0000 C   0  0  0  0  0  0  0  0  0  0  0  0
    1.7321    0.0000    0.0000 C   0  0  0  0  0  0  0  0  0  0  0  0
    1.7321   -1.0000    0.0000 C   0  0  0  0  0  0  0  0  0  0  0  0
    2.5981   -1.5000    0.0000 C   0  0  0  0  0  0  0  0  0  0  0  0
    3.5981   -1.5000    0.0000 F   0  0  0  0  0  0  0  0  0  0  0  0
    3.0981   -0.6340    0.0000 F   0  0  0  0  0  0  0  0  0  0  0  0
    2.5981   -2.5000    0.0000 F   0  0  0  0  0  0  0  0  0  0  0  0
    0.8660   -1.5000    0.0000 C   0  0  0  0  0  0  0  0  0  0  0  0
    0.0000   -1.0000    0.0000 C   0  0  0  0  0  0  0  0  0  0  0  0
   -0.8660   -1.5000    0.0000 C   0  0  0  0  0  0  0  0  0  0  0  0
   -1.3660   -2.3660    0.0000 F   0  0  0  0  0  0  0  0  0  0  0  0
   -0.3660   -2.3660    0.0000 F   0  0  0  0  0  0  0  0  0  0  0  0
   -1.7321   -1.0000    0.0000 F   0  0  0  0  0  0  0  0  0  0  0  0
    0.0000    0.0000    0.0000 C   0  0  0  0  0  0  0  0  0  0  0  0
  1  2  1  0  0  0  0
  2  3  1  0  0  0  0
  2  4  1  0  0  0  0
  2  5  1  0  0  0  0
  5  6  2  3  0  0  0
  6 37  1  0  0  0  0
  6  7  1  0  0  0  0
  7 30  2  0  0  0  0
  7  8  1  0  0  0  0
  8  9  2  0  0  0  0
  8 31  1  0  0  0  0
  9 10  1  0  0  0  0
  9 24  1  0  0  0  0
 10 23  2  0  0  0  0
 10 11  1  0  0  0  0
 11 12  2  0  0  0  0
 12 13  1  0  0  0  0
 12 17  1  0  0  0  0
 13 14  1  0  0  0  0
 13 15  1  0  0  0  0
 13 16  1  0  0  0  0
 17 18  2  0  0  0  0
 18 19  1  0  0  0  0
 18 23  1  0  0  0  0
 19 20  1  0  0  0  0
 19 21  1  0  0  0  0
 19 22  1  0  0  0  0
 24 25  2  0  0  0  0
 25 30  1  0  0  0  0
 25 26  1  0  0  0  0
 26 27  2  0  0  0  0
 27 28  1  0  0  0  0
 28 29  2  0  0  0  0
 29 30  1  0  0  0  0
 31 32  1  0  0  0  0
 32 33  2  0  0  0  0
 32 34  1  0  0  0  0
 32 35  1  0  0  0  0
 35 36  1  0  0  0  0
 36 45  2  0  0  0  0
 36 37  1  0  0  0  0
 37 38  2  0  0  0  0
 38 43  1  0  0  0  0
 38 39  1  0  0  0  0
 39 40  2  0  0  0  0
 40 41  1  0  0  0  0
 41 42  2  0  0  0  0
 42 43  1  0  0  0  0
 43 44  2  0  0  0  0
 44 45  1  0  0  0  0
 45 46  1  0  0  0  0
 46 59  2  0  0  0  0
 46 47  1  0  0  0  0
 47 48  2  0  0  0  0
 48 49  1  0  0  0  0
 48 53  1  0  0  0  0
 49 50  1  0  0  0  0
 49 51  1  0  0  0  0
 49 52  1  0  0  0  0
 53 54  2  0  0  0  0
 54 55  1  0  0  0  0
 54 59  1  0  0  0  0
 55 56  1  0  0  0  0
 55 57  1  0  0  0  0
 55 58  1  0  0  0  0
M  END
> <NMREDATA_VERSION>
1.1

> <NMREDATA_LEVEL>
0

> <NMREDATA_SOLVENT>
CD3COCD3

> <NMREDATA_FORMULA>
C42H27F12O4P

> <NMREDATA_SMILES>
OP1(=O)Oc2c(cc3c(c2C(=CC(C)(C)C)c2c(O1)c(cc1c2cccc1)c1cc(cc(c1)C(F)(F)F)C(F)(F)F)cccc3)c1cc(cc(c1)C(F)(F)F)C(F)(F)F

> <NMREDATA_ASSIGNMENT>
P32, -11.23, 32

> <NMREDATA_1D_31P>
Larmor=202
-11.23, L=P32

$$$$
