
 OpenBabel06112616452D

 33 37  0  0  0  0  0  0  0  0999 V2000
    3.7111   -0.9698    0.0000 C   0  5  0  0  0  0  0  0  0  0  0  0
    2.7601   -1.2788    0.0000 N   0  3  0  0  0  0  0  0  0  0  0  0
    1.8090   -1.5878    0.0000 C   0  0  0  0  0  0  0  0  0  0  0  0
    1.5000   -2.5388    0.0000 C   0  0  0  0  0  0  0  0  0  0  0  0
    0.5000   -2.5388    0.0000 C   0  0  0  0  0  0  0  0  0  0  0  0
   -0.0878   -3.3479    0.0000 C   0  0  0  0  0  0  0  0  0  0  0  0
    0.3190   -4.2614    0.0000 C   0  0  0  0  0  0  0  0  0  0  0  0
   -0.2688   -5.0704    0.0000 C   0  0  0  0  0  0  0  0  0  0  0  0
   -1.2634   -4.9659    0.0000 C   0  0  0  0  0  0  0  0  0  0  0  0
   -1.6701   -4.0523    0.0000 C   0  0  0  0  0  0  0  0  0  0  0  0
   -1.0823   -3.2433    0.0000 C   0  0  0  0  0  0  0  0  0  0  0  0
    0.1910   -1.5878    0.0000 N   0  0  0  0  0  0  0  0  0  0  0  0
    1.0000   -1.0000    0.0000 C   0  0  0  0  0  0  0  0  0  0  0  0
    1.0000    0.0000    0.0000 P   0  0  3  0  0  0  0  0  0  0  0  0
    2.0000    0.0000    0.0000 O   0  0  0  0  0  0  0  0  0  0  0  0
    1.0000    1.0000    0.0000 C   0  0  0  0  0  0  0  0  0  0  0  0
    0.1340    1.5000    0.0000 C   0  0  0  0  0  0  0  0  0  0  0  0
    0.1340    2.5000    0.0000 C   0  0  0  0  0  0  0  0  0  0  0  0
    1.0000    3.0000    0.0000 C   0  0  0  0  0  0  0  0  0  0  0  0
    1.8660    2.5000    0.0000 C   0  0  0  0  0  0  0  0  0  0  0  0
    1.8660    1.5000    0.0000 C   0  0  0  0  0  0  0  0  0  0  0  0
    0.0000    0.0000    0.0000 C   0  0  0  0  0  0  0  0  0  0  0  0
   -0.5000   -0.8660    0.0000 C   0  0  0  0  0  0  0  0  0  0  0  0
   -1.5000   -0.8660    0.0000 C   0  0  0  0  0  0  0  0  0  0  0  0
   -2.0000    0.0000    0.0000 C   0  0  0  0  0  0  0  0  0  0  0  0
   -3.0000    0.0000    0.0000 C   0  0  0  0  0  0  0  0  0  0  0  0
   -3.5000   -0.8660    0.0000 C   0  0  0  0  0  0  0  0  0  0  0  0
   -4.5000   -0.8660    0.0000 C   0  0  0  0  0  0  0  0  0  0  0  0
   -5.0000    0.0000    0.0000 C   0  0  0  0  0  0  0  0  0  0  0  0
   -4.5000    0.8660    0.0000 C   0  0  0  0  0  0  0  0  0  0  0  0
   -3.5000    0.8660    0.0000 C   0  0  0  0  0  0  0  0  0  0  0  0
   -1.5000    0.8660    0.0000 C   0  0  0  0  0  0  0  0  0  0  0  0
   -0.5000    0.8660    0.0000 C   0  0  0  0  0  0  0  0  0  0  0  0
  1  2  3  0  0  0  0
  2  3  1  0  0  0  0
  3 13  2  0  0  0  0
  3  4  1  0  0  0  0
  4  5  2  0  0  0  0
  5  6  1  0  0  0  0
  5 12  1  0  0  0  0
  6 11  2  0  0  0  0
  6  7  1  0  0  0  0
  7  8  2  0  0  0  0
  8  9  1  0  0  0  0
  9 10  2  0  0  0  0
 10 11  1  0  0  0  0
 12 13  1  0  0  0  0
 13 14  1  0  0  0  0
 14 15  2  0  0  0  0
 14 16  1  0  0  0  0
 14 22  1  0  0  0  0
 16 21  2  0  0  0  0
 16 17  1  0  0  0  0
 17 18  2  0  0  0  0
 18 19  1  0  0  0  0
 19 20  2  0  0  0  0
 20 21  1  0  0  0  0
 22 33  2  0  0  0  0
 22 23  1  0  0  0  0
 23 24  2  0  0  0  0
 24 25  1  0  0  0  0
 25 26  1  0  0  0  0
 25 32  2  0  0  0  0
 26 31  2  0  0  0  0
 26 27  1  0  0  0  0
 27 28  2  0  0  0  0
 28 29  1  0  0  0  0
 29 30  2  0  0  0  0
 30 31  1  0  0  0  0
 32 33  1  0  0  0  0
M  END
> <NMREDATA_VERSION>
1.1

> <NMREDATA_LEVEL>
0

> <NMREDATA_SOLVENT>
CDCl3

> <NMREDATA_FORMULA>
C29H21N2OP

> <NMREDATA_SMILES>
[C-]#[N+]c1cc([nH]c1P(=O)(c1ccccc1)c1ccc(cc1)c1ccccc1)c1ccccc1

> <NMREDATA_ASSIGNMENT>
P14, 19.80, 14

> <NMREDATA_1D_31P>
Larmor=160
19.80, L=P14

$$$$
