
 OpenBabel06112616472D

 45 50  0  0  0  0  0  0  0  0999 V2000
    5.9433   -0.4902    0.0000 C   0  0  0  0  0  0  0  0  0  0  0  0
    5.0943    0.0000    0.0000 C   0  0  0  0  0  0  0  0  0  0  0  0
    4.2452   -0.4902    0.0000 C   0  0  0  0  0  0  0  0  0  0  0  0
    3.3962    0.0000    0.0000 C   0  0  0  0  0  0  0  0  0  0  0  0
    2.5471   -0.4902    0.0000 C   0  0  0  0  0  0  0  0  0  0  0  0
    2.5471   -1.4706    0.0000 C   0  0  0  0  0  0  0  0  0  0  0  0
    3.3962   -1.9608    0.0000 C   0  0  0  0  0  0  0  0  0  0  0  0
    4.2452   -1.4706    0.0000 C   0  0  0  0  0  0  0  0  0  0  0  0
    5.0943   -1.9608    0.0000 C   0  0  0  0  0  0  0  0  0  0  0  0
    6.0267   -1.6578    0.0000 C   0  0  0  0  0  0  0  0  0  0  0  0
    6.6029   -2.4510    0.0000 C   0  0  0  0  0  0  0  0  0  0  0  0
    6.0267   -3.2441    0.0000 N   0  0  0  0  0  0  0  0  0  0  0  0
    6.3296   -4.1765    0.0000 C   0  0  0  0  0  0  0  0  0  0  0  0
    5.0943   -2.9412    0.0000 C   0  0  0  0  0  0  0  0  0  0  0  0
    4.2452   -3.4314    0.0000 C   0  0  0  0  0  0  0  0  0  0  0  0
    3.3962   -2.9412    0.0000 C   0  0  0  0  0  0  0  0  0  0  0  0
    1.6981   -1.9608    0.0000 N   0  0  0  0  0  0  0  0  0  0  0  0
    1.6981   -3.9216    0.0000 C   0  0  0  0  0  0  0  0  0  0  0  0
    2.5471   -4.4118    0.0000 C   0  0  0  0  0  0  0  0  0  0  0  0
    2.5471   -5.3922    0.0000 C   0  0  0  0  0  0  0  0  0  0  0  0
    3.3962   -5.8824    0.0000 C   0  0  0  0  0  0  0  0  0  0  0  0
    4.3766   -5.8824    0.0000 F   0  0  0  0  0  0  0  0  0  0  0  0
    3.8864   -5.0333    0.0000 F   0  0  0  0  0  0  0  0  0  0  0  0
    3.3962   -6.8627    0.0000 F   0  0  0  0  0  0  0  0  0  0  0  0
    1.6981   -5.8824    0.0000 C   0  0  0  0  0  0  0  0  0  0  0  0
    0.8490   -5.3922    0.0000 C   0  0  0  0  0  0  0  0  0  0  0  0
    0.0000   -5.8824    0.0000 C   0  0  0  0  0  0  0  0  0  0  0  0
   -0.4902   -6.7314    0.0000 F   0  0  0  0  0  0  0  0  0  0  0  0
    0.4902   -6.7314    0.0000 F   0  0  0  0  0  0  0  0  0  0  0  0
   -0.8490   -5.3922    0.0000 F   0  0  0  0  0  0  0  0  0  0  0  0
    0.8490   -4.4118    0.0000 C   0  0  0  0  0  0  0  0  0  0  0  0
    0.8490   -1.4706    0.0000 P   0  0  1  0  0  0  0  0  0  0  0  0
   -0.1313   -1.4706    0.0000 O   0  0  0  0  0  0  0  0  0  0  0  0
    0.3588   -2.3196    0.0000 C   0  0  0  0  0  0  0  0  0  0  0  0
    0.8490   -3.1687    0.0000 C   0  0  0  0  0  0  0  0  0  0  0  0
    0.3588   -4.0177    0.0000 C   0  0  0  0  0  0  0  0  0  0  0  0
   -0.6215   -4.0177    0.0000 C   0  0  0  0  0  0  0  0  0  0  0  0
   -1.1117   -3.1687    0.0000 C   0  0  0  0  0  0  0  0  0  0  0  0
   -0.6215   -2.3196    0.0000 C   0  0  0  0  0  0  0  0  0  0  0  0
    0.8490   -0.4902    0.0000 C   0  0  0  0  0  0  0  0  0  0  0  0
    1.6981    0.0000    0.0000 C   0  0  0  0  0  0  0  0  0  0  0  0
    1.6981    0.9804    0.0000 C   0  0  0  0  0  0  0  0  0  0  0  0
    0.8490    1.4706    0.0000 C   0  0  0  0  0  0  0  0  0  0  0  0
    0.0000    0.9804    0.0000 C   0  0  0  0  0  0  0  0  0  0  0  0
    0.0000    0.0000    0.0000 C   0  0  0  0  0  0  0  0  0  0  0  0
  1  2  1  0  0  0  0
  2  3  1  0  0  0  0
  3  4  1  0  0  0  0
  4  5  1  0  0  0  0
  5 41  1  0  0  0  0
  5  6  2  0  0  0  0
  6  7  1  0  0  0  0
  6 17  1  0  0  0  0
  7 16  2  0  0  0  0
  7  8  1  0  0  0  0
  8  9  2  0  0  0  0
  9 14  1  0  0  0  0
  9 10  1  0  0  0  0
 10 11  2  0  0  0  0
 11 12  1  0  0  0  0
 12 13  1  0  0  0  0
 12 14  1  0  0  0  0
 14 15  2  0  0  0  0
 15 16  1  0  0  0  0
 17 18  1  0  0  0  0
 17 32  1  0  0  0  0
 18 31  2  0  0  0  0
 18 19  1  0  0  0  0
 19 20  2  0  0  0  0
 20 21  1  0  0  0  0
 20 25  1  0  0  0  0
 21 22  1  0  0  0  0
 21 23  1  0  0  0  0
 21 24  1  0  0  0  0
 25 26  2  0  0  0  0
 26 27  1  0  0  0  0
 26 31  1  0  0  0  0
 27 28  1  0  0  0  0
 27 29  1  0  0  0  0
 27 30  1  0  0  0  0
 32 33  2  6  0  0  0
 32 34  1  0  0  0  0
 32 40  1  0  0  0  0
 34 39  2  0  0  0  0
 34 35  1  0  0  0  0
 35 36  2  0  0  0  0
 36 37  1  0  0  0  0
 37 38  2  0  0  0  0
 38 39  1  0  0  0  0
 40 45  2  0  0  0  0
 40 41  1  0  0  0  0
 41 42  2  0  0  0  0
 42 43  1  0  0  0  0
 43 44  2  0  0  0  0
 44 45  1  0  0  0  0
M  END
> <NMREDATA_VERSION>
1.1

> <NMREDATA_LEVEL>
0

> <NMREDATA_SOLVENT>
CDCl3

> <NMREDATA_FORMULA>
C35H29F6N2OP

> <NMREDATA_SMILES>
CCCCC1=C(c2ccc3c(c2)ccn3C)N(c2cc(cc(c2)C(F)(F)F)C(F)(F)F)[P@](=O)(c2c1cccc2)c1ccccc1

> <NMREDATA_ASSIGNMENT>
P32, 16.98, 32

> <NMREDATA_1D_31P>
Larmor=162
16.98, L=P32

$$$$
