
 OpenBabel06112616492D

 34 35  0  0  0  0  0  0  0  0999 V2000
    1.3660   -5.0000    0.0000 N   0  0  0  0  0  0  0  0  0  0  0  0
    0.5000   -4.5000    0.0000 C   0  0  0  0  0  0  0  0  0  0  0  0
    1.3660   -6.0000    0.0000 C   0  0  0  0  0  0  0  0  0  0  0  0
    2.2321   -4.5000    0.0000 C   0  0  0  0  0  0  0  0  0  0  0  0
    2.2321   -3.5000    0.0000 C   0  0  0  0  0  0  0  0  0  0  0  0
    3.0981   -3.0000    0.0000 C   0  0  0  0  0  0  0  0  0  0  0  0
    3.9641   -3.5000    0.0000 C   0  0  0  0  0  0  0  0  0  0  0  0
    4.8301   -3.0000    0.0000 C   0  0  0  0  0  0  0  0  0  0  0  0
    4.8301   -2.0000    0.0000 P   0  0  0  0  0  0  0  0  0  0  0  0
    5.8301   -2.0000    0.0000 O   0  0  0  0  0  0  0  0  0  0  0  0
    4.8301   -1.0000    0.0000 O   0  0  0  0  0  0  0  0  0  0  0  0
    5.6962   -0.5000    0.0000 C   0  0  0  0  0  0  0  0  0  0  0  0
    3.8301   -2.0000    0.0000 O   0  0  0  0  0  0  0  0  0  0  0  0
    3.3301   -1.1340    0.0000 C   0  0  0  0  0  0  0  0  0  0  0  0
    5.6962   -3.5000    0.0000 C   0  0  0  0  0  0  0  0  0  0  0  0
    6.5622   -3.0000    0.0000 C   0  0  0  0  0  0  0  0  0  0  0  0
    7.4282   -3.5000    0.0000 C   0  0  0  0  0  0  0  0  0  0  0  0
    7.4282   -4.5000    0.0000 C   0  0  0  0  0  0  0  0  0  0  0  0
    8.2942   -5.0000    0.0000 N   0  3  0  0  0  0  0  0  0  0  0  0
    8.2942   -6.0000    0.0000 C   0  0  0  0  0  0  0  0  0  0  0  0
    9.1603   -4.5000    0.0000 C   0  0  0  0  0  0  0  0  0  0  0  0
    6.5622   -5.0000    0.0000 C   0  0  0  0  0  0  0  0  0  0  0  0
    5.6962   -4.5000    0.0000 C   0  0  0  0  0  0  0  0  0  0  0  0
    4.8301   -5.0000    0.0000 N   0  0  0  0  0  0  0  0  0  0  0  0
    4.8301   -6.0000    0.0000 C   0  0  0  0  0  0  0  0  0  0  0  0
    3.9641   -4.5000    0.0000 C   0  0  0  0  0  0  0  0  0  0  0  0
    3.0981   -5.0000    0.0000 C   0  0  0  0  0  0  0  0  0  0  0  0
   12.0263   -3.0000    0.0000 O   0  0  0  0  0  0  0  0  0  0  0  0
   12.0263   -2.0000    0.0000 C   0  0  0  0  0  0  0  0  0  0  0  0
   12.8923   -1.5000    0.0000 O   0  5  0  0  0  0  0  0  0  0  0  0
   11.1603   -1.5000    0.0000 C   0  0  0  0  0  0  0  0  0  0  0  0
   10.1603   -1.5000    0.0000 F   0  0  0  0  0  0  0  0  0  0  0  0
   10.6603   -2.3660    0.0000 F   0  0  0  0  0  0  0  0  0  0  0  0
   11.1603   -0.5000    0.0000 F   0  0  0  0  0  0  0  0  0  0  0  0
  1  2  1  0  0  0  0
  1  3  1  0  0  0  0
  1  4  1  0  0  0  0
  4 27  2  0  0  0  0
  4  5  1  0  0  0  0
  5  6  2  0  0  0  0
  6  7  1  0  0  0  0
  7 26  2  0  0  0  0
  7  8  1  0  0  0  0
  8  9  1  0  0  0  0
  8 15  2  0  0  0  0
  9 10  2  0  0  0  0
  9 11  1  0  0  0  0
  9 13  1  0  0  0  0
 11 12  1  0  0  0  0
 13 14  1  0  0  0  0
 15 23  1  0  0  0  0
 15 16  1  0  0  0  0
 16 17  2  0  0  0  0
 17 18  1  0  0  0  0
 18 19  2  0  0  0  0
 18 22  1  0  0  0  0
 19 20  1  0  0  0  0
 19 21  1  0  0  0  0
 22 23  2  0  0  0  0
 23 24  1  0  0  0  0
 24 25  1  0  0  0  0
 24 26  1  0  0  0  0
 26 27  1  0  0  0  0
 28 29  2  0  0  0  0
 29 30  1  0  0  0  0
 29 31  1  0  0  0  0
 31 32  1  0  0  0  0
 31 33  1  0  0  0  0
 31 34  1  0  0  0  0
M  END
> <NMREDATA_VERSION>
1.1

> <NMREDATA_LEVEL>
0

> <NMREDATA_SOLVENT>
CD3OD

> <NMREDATA_FORMULA>
C22H27F3N3O5P

> <NMREDATA_SMILES>
[O-]C(=O)C(F)(F)F.COP(=O)(c1c2-c(cc(=[N+](C)C)cc2)n(c2c1ccc(c2)N(C)C)C)OC

> <NMREDATA_ASSIGNMENT>
P9, 16.45, 9

> <NMREDATA_1D_31P>
Larmor=122
16.45, L=P9

$$$$
