
 OpenBabel06112616432D

 33 36  0  0  0  0  0  0  0  0999 V2000
   -2.2172    0.7395    0.0000 C   0  0  0  0  0  0  0  0  0  0  0  0
   -2.5178   -0.1858    0.0000 C   0  0  0  0  0  0  0  0  0  0  0  0
   -1.9459   -0.9730    0.0000 C   0  0  0  0  0  0  0  0  0  0  0  0
    0.0000   -0.9730    0.0000 P   0  0  0  0  0  0  0  0  0  0  0  0
    0.0000   -1.9459    0.0000 O   0  0  0  0  0  0  0  0  0  0  0  0
    0.9730   -0.9730    0.0000 C   0  0  0  0  0  0  0  0  0  0  0  0
    1.4595   -0.1304    0.0000 C   0  0  0  0  0  0  0  0  0  0  0  0
    2.4324   -0.1304    0.0000 C   0  0  0  0  0  0  0  0  0  0  0  0
    2.9189   -0.9730    0.0000 C   0  0  0  0  0  0  0  0  0  0  0  0
    3.8919   -0.9730    0.0000 F   0  0  0  0  0  0  0  0  0  0  0  0
    2.4324   -1.8156    0.0000 C   0  0  0  0  0  0  0  0  0  0  0  0
    1.4595   -1.8156    0.0000 C   0  0  0  0  0  0  0  0  0  0  0  0
    0.0000    0.0000    0.0000 C   0  0  0  0  0  0  0  0  0  0  0  0
   -0.8426    0.4865    0.0000 C   0  0  0  0  0  0  0  0  0  0  0  0
   -0.8426    1.4595    0.0000 C   0  0  0  0  0  0  0  0  0  0  0  0
    0.0000    1.9459    0.0000 C   0  0  0  0  0  0  0  0  0  0  0  0
    0.0000    2.9189    0.0000 F   0  0  0  0  0  0  0  0  0  0  0  0
    0.8426    1.4595    0.0000 C   0  0  0  0  0  0  0  0  0  0  0  0
    0.8426    0.4865    0.0000 C   0  0  0  0  0  0  0  0  0  0  0  0
   -2.5178   -1.7601    0.0000 N   0  0  0  0  0  0  0  0  0  0  0  0
   -2.2172   -2.6855    0.0000 C   0  0  0  0  0  0  0  0  0  0  0  0
   -1.2655   -2.8878    0.0000 O   0  0  0  0  0  0  0  0  0  0  0  0
   -2.8682   -3.4085    0.0000 O   0  0  0  0  0  0  0  0  0  0  0  0
   -3.8199   -3.2062    0.0000 C   0  0  0  0  0  0  0  0  0  0  0  0
   -4.5430   -2.5552    0.0000 C   0  0  0  0  0  0  0  0  0  0  0  0
   -3.6176   -2.2545    0.0000 C   0  0  0  0  0  0  0  0  0  0  0  0
   -4.4710   -3.9293    0.0000 C   0  0  0  0  0  0  0  0  0  0  0  0
   -3.4432   -1.4595    0.0000 C   0  0  0  0  0  0  0  0  0  0  0  0
   -4.2858   -1.9459    0.0000 C   0  0  0  0  0  0  0  0  0  0  0  0
   -5.1284   -1.4595    0.0000 C   0  0  0  0  0  0  0  0  0  0  0  0
   -5.1284   -0.4865    0.0000 C   0  0  0  0  0  0  0  0  0  0  0  0
   -4.2858    0.0000    0.0000 C   0  0  0  0  0  0  0  0  0  0  0  0
   -3.4432   -0.4865    0.0000 C   0  0  0  0  0  0  0  0  0  0  0  0
  1  2  1  0  0  0  0
  2 33  1  0  0  0  0
  2  3  2  0  0  0  0
  3  4  1  0  0  0  0
  3 20  1  0  0  0  0
  4  5  2  0  0  0  0
  4  6  1  0  0  0  0
  4 13  1  0  0  0  0
  6 12  2  0  0  0  0
  6  7  1  0  0  0  0
  7  8  2  0  0  0  0
  8  9  1  0  0  0  0
  9 10  1  0  0  0  0
  9 11  2  0  0  0  0
 11 12  1  0  0  0  0
 13 19  2  0  0  0  0
 13 14  1  0  0  0  0
 14 15  2  0  0  0  0
 15 16  1  0  0  0  0
 16 17  1  0  0  0  0
 16 18  2  0  0  0  0
 18 19  1  0  0  0  0
 20 21  1  0  0  0  0
 20 28  1  0  0  0  0
 21 22  2  0  0  0  0
 21 23  1  0  0  0  0
 23 24  1  0  0  0  0
 24 25  1  0  0  0  0
 24 26  1  0  0  0  0
 24 27  1  0  0  0  0
 28 33  2  0  0  0  0
 28 29  1  0  0  0  0
 29 30  2  0  0  0  0
 30 31  1  0  0  0  0
 31 32  2  0  0  0  0
 32 33  1  0  0  0  0
M  END
> <NMREDATA_VERSION>
1.1

> <NMREDATA_LEVEL>
0

> <NMREDATA_SOLVENT>
CDCl3

> <NMREDATA_FORMULA>
C26H24F2NO3P

> <NMREDATA_SMILES>
Fc1ccc(cc1)P(=O)(c1c(C)c2c(n1C(=O)OC(C)(C)C)cccc2)c1ccc(cc1)F

> <NMREDATA_ASSIGNMENT>
P4, 21.50, 4

> <NMREDATA_1D_31P>
Larmor=162
21.50, L=P4

$$$$
