
 OpenBabel06112616452D

 26 26  0  0  1  0  0  0  0  0999 V2000
    1.8660   -1.5000    0.0000 C    0  0  0  0  0  0  0  0  0  0  0  0
    1.0000   -1.0000    0.0000 C    0  0  0  0  0  0  0  0  0  0  0  0
    0.0000   -1.0000    0.0000 C    0  0  0  0  0  0  0  0  0  0  0  0
    0.5000   -1.8660    0.0000 C    0  0  0  0  0  0  0  0  0  0  0  0
    1.0000    0.0000    0.0000 Si   0  0  0  0  0  0  0  0  0  0  0  0
    2.0000    0.0000    0.0000 C    0  0  0  0  0  0  0  0  0  0  0  0
    1.0000    1.0000    0.0000 C    0  0  0  0  0  0  0  0  0  0  0  0
    0.0000    0.0000    0.0000 C    0  0  0  0  0  0  0  0  0  0  0  0
   -1.0000    0.0000    0.0000 C    0  0  0  0  0  0  0  0  0  0  0  0
   -2.0000    0.0000    0.0000 C    0  0  3  0  0  0  0  0  0  0  0  0
   -2.0000    1.0000    0.0000 O    0  0  0  0  0  0  0  0  0  0  0  0
   -3.0000    0.0000    0.0000 C    0  0  0  0  0  0  0  0  0  0  0  0
   -4.0000    0.0000    0.0000 C    0  0  0  0  0  0  0  0  0  0  0  0
   -5.0000    0.0000    0.0000 C    0  0  0  0  0  0  0  0  0  0  0  0
   -5.5000   -0.8660    0.0000 C    0  0  0  0  0  0  0  0  0  0  0  0
   -6.5000   -0.8660    0.0000 C    0  0  0  0  0  0  0  0  0  0  0  0
   -7.0000    0.0000    0.0000 C    0  0  0  0  0  0  0  0  0  0  0  0
   -6.5000    0.8660    0.0000 C    0  0  0  0  0  0  0  0  0  0  0  0
   -5.5000    0.8660    0.0000 C    0  0  0  0  0  0  0  0  0  0  0  0
   -5.0000    1.7321    0.0000 Cl   0  0  0  0  0  0  0  0  0  0  0  0
   -2.0000   -1.0000    0.0000 P    0  0  0  0  0  0  0  0  0  0  0  0
   -3.0000   -1.0000    0.0000 O    0  0  0  0  0  0  0  0  0  0  0  0
   -2.0000   -2.0000    0.0000 O    0  0  0  0  0  0  0  0  0  0  0  0
   -2.8660   -2.5000    0.0000 C    0  0  0  0  0  0  0  0  0  0  0  0
   -1.0000   -1.0000    0.0000 O    0  0  0  0  0  0  0  0  0  0  0  0
   -0.5000   -1.8660    0.0000 C    0  0  0  0  0  0  0  0  0  0  0  0
  1  2  1  0  0  0  0
  2  3  1  0  0  0  0
  2  4  1  0  0  0  0
  2  5  1  0  0  0  0
  5  6  1  0  0  0  0
  5  7  1  0  0  0  0
  5  8  1  0  0  0  0
  8  9  3  0  0  0  0
  9 10  1  0  0  0  0
 10 11  1  0  0  0  0
 10 12  1  0  0  0  0
 10 21  1  0  0  0  0
 12 13  3  0  0  0  0
 13 14  1  0  0  0  0
 14 19  2  0  0  0  0
 14 15  1  0  0  0  0
 15 16  2  0  0  0  0
 16 17  1  0  0  0  0
 17 18  2  0  0  0  0
 18 19  1  0  0  0  0
 19 20  1  0  0  0  0
 21 22  2  0  0  0  0
 21 23  1  0  0  0  0
 21 25  1  0  0  0  0
 23 24  1  0  0  0  0
 25 26  1  0  0  0  0
M  END
> <NMREDATA_VERSION>
1.1

> <NMREDATA_LEVEL>
0

> <NMREDATA_SOLVENT>
CDCl3

> <NMREDATA_FORMULA>
C19H26ClO4PSi

> <NMREDATA_SMILES>
COP(=O)(C(C#C[Si](C(C)(C)C)(C)C)(C#Cc1ccccc1Cl)O)OC

> <NMREDATA_ASSIGNMENT>
P21, 15.40, 21

> <NMREDATA_1D_31P>
Larmor=243
15.40, L=P21

$$$$
