
 OpenBabel06112616452D

 30 31  0  0  1  0  0  0  0  0999 V2000
   -3.9700   -1.3233    0.0000 C   0  0  0  0  0  0  0  0  0  0  0  0
   -3.1310   -1.8077    0.0000 C   0  0  0  0  0  0  0  0  0  0  0  0
   -2.2921   -1.3233    0.0000 C   0  0  0  0  0  0  0  0  0  0  0  0
   -1.4531   -1.8077    0.0000 C   0  0  3  0  0  0  0  0  0  0  0  0
   -0.4844   -1.8077    0.0000 C   0  0  0  0  0  0  0  0  0  0  0  0
   -0.9687   -0.9687    0.0000 C   0  0  0  0  0  0  0  0  0  0  0  0
    0.0000   -0.9687    0.0000 P   0  0  0  0  0  0  0  0  0  0  0  0
    0.0000   -1.9375    0.0000 S   0  0  0  0  0  0  0  0  0  0  0  0
    0.9687   -0.9687    0.0000 O   0  0  0  0  0  0  0  0  0  0  0  0
    1.4531   -1.8077    0.0000 C   0  0  0  0  0  0  0  0  0  0  0  0
    2.4219   -1.8077    0.0000 C   0  0  0  0  0  0  0  0  0  0  0  0
    0.0000    0.0000    0.0000 O   0  0  0  0  0  0  0  0  0  0  0  0
    0.8390    0.4844    0.0000 C   0  0  0  0  0  0  0  0  0  0  0  0
    1.6779    0.0000    0.0000 C   0  0  0  0  0  0  0  0  0  0  0  0
   -1.4531   -2.7765    0.0000 C   0  0  0  0  0  0  0  0  0  0  0  0
   -2.2921   -3.2608    0.0000 C   0  0  0  0  0  0  0  0  0  0  0  0
   -3.2608   -4.9388    0.0000 C   0  0  0  0  0  0  0  0  0  0  0  0
   -2.7765   -5.7777    0.0000 O   0  0  0  0  0  0  0  0  0  0  0  0
   -4.2296   -4.9388    0.0000 O   0  0  0  0  0  0  0  0  0  0  0  0
   -4.7140   -5.7777    0.0000 C   0  0  0  0  0  0  0  0  0  0  0  0
   -1.8077   -4.0998    0.0000 C   0  0  0  0  0  0  0  0  0  0  0  0
   -2.2921   -4.9388    0.0000 O   0  0  0  0  0  0  0  0  0  0  0  0
   -0.8390   -4.0998    0.0000 O   0  0  0  0  0  0  0  0  0  0  0  0
   -0.3546   -4.9388    0.0000 C   0  0  0  0  0  0  0  0  0  0  0  0
   -3.1310   -2.7765    0.0000 C   0  0  0  0  0  0  0  0  0  0  0  0
   -4.8090   -1.8077    0.0000 C   0  0  0  0  0  0  0  0  0  0  0  0
   -5.6479   -1.3233    0.0000 C   0  0  0  0  0  0  0  0  0  0  0  0
   -5.6479   -0.3546    0.0000 C   0  0  0  0  0  0  0  0  0  0  0  0
   -4.8090    0.1298    0.0000 C   0  0  0  0  0  0  0  0  0  0  0  0
   -3.9700   -0.3546    0.0000 C   0  0  0  0  0  0  0  0  0  0  0  0
  1 30  2  0  0  0  0
  1  2  1  0  0  0  0
  1 26  1  0  0  0  0
  2 25  1  0  0  0  0
  2  3  2  0  0  0  0
  3  4  1  0  0  0  0
  4  5  1  0  0  0  0
  4  6  1  0  0  0  0
  4 15  1  0  0  0  0
  6  7  1  0  0  0  0
  7  8  2  0  0  0  0
  7  9  1  0  0  0  0
  7 12  1  0  0  0  0
  9 10  1  0  0  0  0
 10 11  1  0  0  0  0
 12 13  1  0  0  0  0
 13 14  1  0  0  0  0
 15 16  1  0  0  0  0
 16 17  1  0  0  0  0
 16 21  1  0  0  0  0
 16 25  1  0  0  0  0
 17 18  2  0  0  0  0
 17 19  1  0  0  0  0
 19 20  1  0  0  0  0
 21 22  2  0  0  0  0
 21 23  1  0  0  0  0
 23 24  1  0  0  0  0
 26 27  2  0  0  0  0
 27 28  1  0  0  0  0
 28 29  2  0  0  0  0
 29 30  1  0  0  0  0
M  END
> <NMREDATA_VERSION>
1.1

> <NMREDATA_LEVEL>
0

> <NMREDATA_SOLVENT>
CDCl3

> <NMREDATA_FORMULA>
C22H31O6PS

> <NMREDATA_SMILES>
CCOP(=S)(CC1(C)C=C(CC(C1)(C(=O)OC)C(=O)OC)c1ccccc1)OCC

> <NMREDATA_ASSIGNMENT>
P7, 93.76, 7

> <NMREDATA_1D_31P>
Larmor=121
93.76, L=P7

$$$$
