
 OpenBabel06112616452D

 53 61  0  0  0  0  0  0  0  0999 V2000
   -0.9749    0.2225    0.0000 C    0  0  0  0  0  0  0  0  0  0  0  0
   -1.2697    1.1781    0.0000 C    0  0  0  0  0  0  0  0  0  0  0  0
   -0.5895    1.9111    0.0000 C    0  0  0  0  0  0  0  0  0  0  0  0
    0.3854    1.6886    0.0000 C    0  0  0  0  0  0  0  0  0  0  0  0
    1.0656    2.4217    0.0000 C    0  0  0  0  0  0  0  0  0  0  0  0
    0.7708    3.3772    0.0000 C    0  0  0  0  0  0  0  0  0  0  0  0
   -0.2264    3.4520    0.0000 O    0  0  0  0  0  0  0  0  0  0  0  0
   -0.7897    4.2782    0.0000 P    0  0  0  0  0  0  0  0  0  0  0  0
   -1.7785    4.1292    0.0000 N    0  0  0  0  0  0  0  0  0  0  0  0
   -2.1439    3.1983    0.0000 C    0  0  0  0  0  0  0  0  0  0  0  0
   -3.1327    3.0493    0.0000 C    0  0  0  0  0  0  0  0  0  0  0  0
   -3.7562    3.8311    0.0000 C    0  0  0  0  0  0  0  0  0  0  0  0
   -4.7450    3.6820    0.0000 C    0  0  0  0  0  0  0  0  0  0  0  0
   -5.1104    2.7512    0.0000 C    0  0  0  0  0  0  0  0  0  0  0  0
   -4.4869    1.9693    0.0000 C    0  0  0  0  0  0  0  0  0  0  0  0
   -3.4980    2.1184    0.0000 C    0  0  0  0  0  0  0  0  0  0  0  0
   -2.4020    4.9110    0.0000 C    0  0  0  0  0  0  0  0  0  0  0  0
   -3.3908    4.7620    0.0000 C    0  0  0  0  0  0  0  0  0  0  0  0
   -4.0143    5.5438    0.0000 S    0  0  0  0  0  0  0  0  0  0  0  0
   -5.0032    5.3948    0.0000 C    0  0  0  0  0  0  0  0  0  0  0  0
   -5.3685    4.4639    0.0000 C    0  0  0  0  0  0  0  0  0  0  0  0
   -6.3573    4.3148    0.0000 C    0  0  0  0  0  0  0  0  0  0  0  0
   -6.9808    5.0967    0.0000 C    0  0  0  0  0  0  0  0  0  0  0  0
   -7.9697    4.9476    0.0000 Br   0  0  0  0  0  0  0  0  0  0  0  0
   -6.6155    6.0275    0.0000 C    0  0  0  0  0  0  0  0  0  0  0  0
   -5.6267    6.1766    0.0000 C    0  0  0  0  0  0  0  0  0  0  0  0
   -0.4949    5.2338    0.0000 O    0  0  0  0  0  0  0  0  0  0  0  0
    0.4359    5.5991    0.0000 C    0  0  0  0  0  0  0  0  0  0  0  0
    1.3020    5.0991    0.0000 C    0  0  0  0  0  0  0  0  0  0  0  0
    1.4510    4.1103    0.0000 C    0  0  0  0  0  0  0  0  0  0  0  0
    2.4259    3.8878    0.0000 C    0  0  0  0  0  0  0  0  0  0  0  0
    2.7207    2.9322    0.0000 C    0  0  0  0  0  0  0  0  0  0  0  0
    2.0405    2.1992    0.0000 C    0  0  0  0  0  0  0  0  0  0  0  0
    3.6956    2.7097    0.0000 C    0  0  0  0  0  0  0  0  0  0  0  0
    4.3758    3.4427    0.0000 C    0  0  0  0  0  0  0  0  0  0  0  0
    4.0810    4.3983    0.0000 C    0  0  0  0  0  0  0  0  0  0  0  0
    3.1061    4.6208    0.0000 C    0  0  0  0  0  0  0  0  0  0  0  0
    2.1680    5.5991    0.0000 C    0  0  0  0  0  0  0  0  0  0  0  0
    2.1680    6.5991    0.0000 C    0  0  0  0  0  0  0  0  0  0  0  0
    1.3020    7.0991    0.0000 C    0  0  0  0  0  0  0  0  0  0  0  0
    0.4359    6.5991    0.0000 C    0  0  0  0  0  0  0  0  0  0  0  0
   -0.4301    7.0991    0.0000 C    0  0  0  0  0  0  0  0  0  0  0  0
   -1.2961    6.5991    0.0000 C    0  0  0  0  0  0  0  0  0  0  0  0
   -2.1621    7.0991    0.0000 C    0  0  0  0  0  0  0  0  0  0  0  0
   -2.1621    8.0991    0.0000 C    0  0  0  0  0  0  0  0  0  0  0  0
   -1.2961    8.5991    0.0000 C    0  0  0  0  0  0  0  0  0  0  0  0
   -0.4301    8.0991    0.0000 C    0  0  0  0  0  0  0  0  0  0  0  0
    3.0340    7.0991    0.0000 C    0  0  0  0  0  0  0  0  0  0  0  0
    3.9000    6.5991    0.0000 C    0  0  0  0  0  0  0  0  0  0  0  0
    3.9000    5.5991    0.0000 C    0  0  0  0  0  0  0  0  0  0  0  0
    3.0340    5.0991    0.0000 C    0  0  0  0  0  0  0  0  0  0  0  0
    0.6802    0.7331    0.0000 C    0  0  0  0  0  0  0  0  0  0  0  0
    0.0000    0.0000    0.0000 C    0  0  0  0  0  0  0  0  0  0  0  0
  1 53  2  0  0  0  0
  1  2  1  0  0  0  0
  2  3  2  0  0  0  0
  3  4  1  0  0  0  0
  4  5  1  0  0  0  0
  4 52  2  0  0  0  0
  5 33  2  0  0  0  0
  5  6  1  0  0  0  0
  6 30  2  0  0  0  0
  6  7  1  0  0  0  0
  7  8  1  0  0  0  0
  8  9  1  0  0  0  0
  8 27  1  0  0  0  0
  9 10  1  0  0  0  0
  9 17  1  0  0  0  0
 10 11  1  0  0  0  0
 11 16  1  0  0  0  0
 11 12  1  0  0  0  0
 12 13  1  0  0  0  0
 13 14  1  0  0  0  0
 14 15  1  0  0  0  0
 15 16  1  0  0  0  0
 17 18  1  0  0  0  0
 18 19  1  0  0  0  0
 19 20  1  0  0  0  0
 20 26  2  0  0  0  0
 20 21  1  0  0  0  0
 21 22  2  0  0  0  0
 22 23  1  0  0  0  0
 23 24  1  0  0  0  0
 23 25  2  0  0  0  0
 25 26  1  0  0  0  0
 27 28  1  0  0  0  0
 28 41  2  0  0  0  0
 28 29  1  0  0  0  0
 29 30  1  0  0  0  0
 29 38  2  0  0  0  0
 30 31  1  0  0  0  0
 31 37  2  0  0  0  0
 31 32  1  0  0  0  0
 32 33  1  0  0  0  0
 32 34  2  0  0  0  0
 34 35  1  0  0  0  0
 35 36  2  0  0  0  0
 36 37  1  0  0  0  0
 38 51  1  0  0  0  0
 38 39  1  0  0  0  0
 39 40  2  0  0  0  0
 39 48  1  0  0  0  0
 40 41  1  0  0  0  0
 41 42  1  0  0  0  0
 42 47  2  0  0  0  0
 42 43  1  0  0  0  0
 43 44  2  0  0  0  0
 44 45  1  0  0  0  0
 45 46  2  0  0  0  0
 46 47  1  0  0  0  0
 48 49  2  0  0  0  0
 49 50  1  0  0  0  0
 50 51  2  0  0  0  0
 52 53  1  0  0  0  0
M  END
> <NMREDATA_VERSION>
1.1

> <NMREDATA_LEVEL>
0

> <NMREDATA_SOLVENT>
CDCl3

> <NMREDATA_FORMULA>
C47H41BrNO2PS

> <NMREDATA_SMILES>
Brc1ccc(cc1)SCCN(p1oc2c(cc3c(c2c2c(o1)c(cc1c2cccc1)c1ccccc1)cccc3)c1ccccc1)CC1CCCCC1

> <NMREDATA_ASSIGNMENT>
P8, 144.37, 8

> <NMREDATA_1D_31P>
Larmor=162MHz
144.37, L=P8

$$$$
