
 OpenBabel06112616432D

 24 26  0  0  0  0  0  0  0  0999 V2000
   -1.0000   -1.0000    0.0000 O   0  0  0  0  0  0  0  0  0  0  0  0
    0.0000   -1.0000    0.0000 P   0  0  0  0  0  0  0  0  0  0  0  0
    0.0000   -2.0000    0.0000 O   0  0  0  0  0  0  0  0  0  0  0  0
    1.0000   -1.0000    0.0000 O   0  0  0  0  0  0  0  0  0  0  0  0
    0.0000    0.0000    0.0000 C   0  0  0  0  0  0  0  0  0  0  0  0
    0.8660    0.5000    0.0000 C   0  0  0  0  0  0  0  0  0  0  0  0
    0.9706    1.4945    0.0000 C   0  0  0  0  0  0  0  0  0  0  0  0
    1.9487    1.7024    0.0000 C   0  0  0  0  0  0  0  0  0  0  0  0
    2.4487    2.5685    0.0000 C   0  0  0  0  0  0  0  0  0  0  0  0
    3.4487    2.5685    0.0000 C   0  0  0  0  0  0  0  0  0  0  0  0
    3.9487    1.7024    0.0000 C   0  0  0  0  0  0  0  0  0  0  0  0
    3.4487    0.8364    0.0000 C   0  0  0  0  0  0  0  0  0  0  0  0
    2.4487    0.8364    0.0000 C   0  0  0  0  0  0  0  0  0  0  0  0
    1.7796    0.0933    0.0000 N   0  0  0  0  0  0  0  0  0  0  0  0
    1.9875   -0.8849    0.0000 C   0  0  0  0  0  0  0  0  0  0  0  0
    2.9385   -1.1939    0.0000 N   0  0  0  0  0  0  0  0  0  0  0  0
    3.1465   -2.1720    0.0000 C   0  0  0  0  0  0  0  0  0  0  0  0
    2.4033   -2.8412    0.0000 C   0  0  0  0  0  0  0  0  0  0  0  0
    1.4522   -2.5322    0.0000 C   0  0  0  0  0  0  0  0  0  0  0  0
    1.2443   -1.5540    0.0000 N   0  0  0  0  0  0  0  0  0  0  0  0
   -0.8660    0.5000    0.0000 P   0  0  0  0  0  0  0  0  0  0  0  0
   -0.3660    1.3660    0.0000 O   0  0  0  0  0  0  0  0  0  0  0  0
   -1.7321    1.0000    0.0000 O   0  0  0  0  0  0  0  0  0  0  0  0
   -1.3660   -0.3660    0.0000 O   0  0  0  0  0  0  0  0  0  0  0  0
  1  2  2  0  0  0  0
  2  3  1  0  0  0  0
  2  4  1  0  0  0  0
  2  5  1  0  0  0  0
  5  6  1  0  0  0  0
  5 21  1  0  0  0  0
  6 14  1  0  0  0  0
  6  7  2  0  0  0  0
  7  8  1  0  0  0  0
  8 13  2  0  0  0  0
  8  9  1  0  0  0  0
  9 10  2  0  0  0  0
 10 11  1  0  0  0  0
 11 12  2  0  0  0  0
 12 13  1  0  0  0  0
 13 14  1  0  0  0  0
 14 15  1  0  0  0  0
 15 20  2  0  0  0  0
 15 16  1  0  0  0  0
 16 17  2  0  0  0  0
 17 18  1  0  0  0  0
 18 19  2  0  0  0  0
 19 20  1  0  0  0  0
 21 22  2  0  0  0  0
 21 23  1  0  0  0  0
 21 24  1  0  0  0  0
M  END
> <NMREDATA_VERSION>
1.1

> <NMREDATA_LEVEL>
0

> <NMREDATA_SOLVENT>
D2O

> <NMREDATA_FORMULA>
C13H13N3O6P2

> <NMREDATA_SMILES>
OP(=O)(C(P(=O)(O)O)c1cc2c(n1c1ncccn1)cccc2)O

> <NMREDATA_ASSIGNMENT>
P2, 18.20, 2
P21, 18.20, 21

> <NMREDATA_1D_31P>
Larmor=162
18.20, L=P2
18.20, L=P21

$$$$
