
 OpenBabel06112616452D

 34 36  0  0  1  0  0  0  0  0999 V2000
    2.4324   -0.1304    0.0000 C   0  0  0  0  0  0  0  0  0  0  0  0
    1.4595   -0.1304    0.0000 C   0  0  0  0  0  0  0  0  0  0  0  0
    0.9730   -0.9730    0.0000 O   0  0  0  0  0  0  0  0  0  0  0  0
    0.0000   -0.9730    0.0000 P   0  0  0  0  0  0  0  0  0  0  0  0
    0.0000   -1.9459    0.0000 O   0  0  0  0  0  0  0  0  0  0  0  0
    0.8426   -2.4324    0.0000 C   0  0  0  0  0  0  0  0  0  0  0  0
    0.8426   -3.4054    0.0000 C   0  0  0  0  0  0  0  0  0  0  0  0
   -1.9459   -0.9730    0.0000 C   0  0  3  0  0  0  0  0  0  0  0  0
   -1.7703   -0.0160    0.0000 C   0  0  0  0  0  0  0  0  0  0  0  0
   -2.5113    0.6146    0.0000 O   0  0  0  0  0  0  0  0  0  0  0  0
   -3.4279    0.2882    0.0000 C   0  0  0  0  0  0  0  0  0  0  0  0
   -4.3849    0.4638    0.0000 C   0  0  0  0  0  0  0  0  0  0  0  0
   -3.7543    1.2048    0.0000 C   0  0  0  0  0  0  0  0  0  0  0  0
   -3.6035   -0.6688    0.0000 C   0  0  0  0  0  0  0  0  0  0  0  0
   -0.8537    0.3104    0.0000 O   0  0  0  0  0  0  0  0  0  0  0  0
   -2.8858   -1.2248    0.0000 C   0  0  0  0  0  0  0  0  0  0  0  0
   -2.1978   -1.9128    0.0000 C   0  0  3  0  0  0  0  0  0  0  0  0
   -1.9459   -2.8526    0.0000 C   0  0  0  0  0  0  0  0  0  0  0  0
   -2.6339   -3.5406    0.0000 C   0  0  0  0  0  0  0  0  0  0  0  0
   -3.5738   -3.2888    0.0000 C   0  0  0  0  0  0  0  0  0  0  0  0
   -4.2618   -3.9768    0.0000 O   0  0  0  0  0  0  0  0  0  0  0  0
   -5.2016   -3.7250    0.0000 C   0  0  0  0  0  0  0  0  0  0  0  0
   -5.4534   -2.7851    0.0000 C   0  0  0  0  0  0  0  0  0  0  0  0
   -6.3932   -2.5333    0.0000 C   0  0  0  0  0  0  0  0  0  0  0  0
   -7.0812   -3.2213    0.0000 C   0  0  0  0  0  0  0  0  0  0  0  0
   -8.0210   -2.9695    0.0000 C   0  0  0  0  0  0  0  0  0  0  0  0
   -8.2729   -2.0297    0.0000 C   0  0  0  0  0  0  0  0  0  0  0  0
   -9.2127   -1.7778    0.0000 C   0  0  0  0  0  0  0  0  0  0  0  0
   -9.9007   -2.4658    0.0000 C   0  0  0  0  0  0  0  0  0  0  0  0
   -9.6489   -3.4057    0.0000 C   0  0  0  0  0  0  0  0  0  0  0  0
   -8.7090   -3.6575    0.0000 C   0  0  0  0  0  0  0  0  0  0  0  0
   -6.8294   -4.1611    0.0000 C   0  0  0  0  0  0  0  0  0  0  0  0
   -5.8896   -4.4130    0.0000 C   0  0  0  0  0  0  0  0  0  0  0  0
    0.0000    0.0000    0.0000 O   0  0  0  0  0  0  0  0  0  0  0  0
  1  2  1  0  0  0  0
  2  3  1  0  0  0  0
  3  4  1  0  0  0  0
  4  5  1  0  0  0  0
  4  8  1  0  0  0  0
  4 34  2  0  0  0  0
  5  6  1  0  0  0  0
  6  7  1  0  0  0  0
  8 17  1  0  0  0  0
  8  9  1  0  0  0  0
  8 16  1  0  0  0  0
  9 10  1  0  0  0  0
  9 15  2  0  0  0  0
 10 11  1  0  0  0  0
 11 12  1  0  0  0  0
 11 13  1  0  0  0  0
 11 14  1  0  0  0  0
 16 17  1  0  0  0  0
 17 18  1  0  0  0  0
 18 19  1  0  0  0  0
 19 20  1  0  0  0  0
 20 21  1  0  0  0  0
 21 22  1  0  0  0  0
 22 33  2  0  0  0  0
 22 23  1  0  0  0  0
 23 24  2  0  0  0  0
 24 25  1  0  0  0  0
 25 26  1  0  0  0  0
 25 32  2  0  0  0  0
 26 31  2  0  0  0  0
 26 27  1  0  0  0  0
 27 28  2  0  0  0  0
 28 29  1  0  0  0  0
 29 30  2  0  0  0  0
 30 31  1  0  0  0  0
 32 33  1  0  0  0  0
M  END
> <NMREDATA_VERSION>
1.1

> <NMREDATA_LEVEL>
0

> <NMREDATA_SOLVENT>
CDCl3

> <NMREDATA_FORMULA>
C27H37O6P

> <NMREDATA_SMILES>
CCOP(=O)(C1(CC1CCCOc1ccc(cc1)c1ccccc1)C(=O)OC(C)(C)C)OCC

> <NMREDATA_ASSIGNMENT>
P4, 24.47, 4

> <NMREDATA_1D_31P>
Larmor=162
24.47, L=P4

$$$$
