
 OpenBabel06112616482D

 44 49  0  0  1  0  0  0  0  0999 V2000
    1.6321    0.0000    0.0000 P    0  0  0  0  0  0  0  0  0  0  0  0
    2.4482   -0.4712    0.0000 C    0  0  0  0  0  0  0  0  0  0  0  0
    3.2642    0.0000    0.0000 C    0  0  0  0  0  0  0  0  0  0  0  0
    4.0803   -0.4712    0.0000 C    0  0  0  0  0  0  0  0  0  0  0  0
    4.0803   -1.4135    0.0000 C    0  0  0  0  0  0  0  0  0  0  0  0
    3.2642   -1.8846    0.0000 C    0  0  0  0  0  0  0  0  0  0  0  0
    2.4482   -1.4135    0.0000 C    0  0  0  0  0  0  0  0  0  0  0  0
    1.6321   -1.8846    0.0000 O    0  0  0  0  0  0  0  0  0  0  0  0
    1.6321   -2.8269    0.0000 C    0  0  0  0  0  0  0  0  0  0  0  0
    0.8161   -3.2981    0.0000 C    0  0  0  0  0  0  0  0  0  0  0  0
   -2.4482   -1.4135    0.0000 C    0  0  1  0  0  0  0  0  0  0  0  0
   -2.4482   -0.4712    0.0000 N    0  0  0  0  0  0  0  0  0  0  0  0
   -3.2642    0.0000    0.0000 S    0  0  1  0  0  0  0  0  0  0  0  0
   -4.0803   -0.4712    0.0000 C    0  0  0  0  0  0  0  0  0  0  0  0
   -4.5515   -1.2872    0.0000 C    0  0  0  0  0  0  0  0  0  0  0  0
   -3.6092   -1.2872    0.0000 C    0  0  0  0  0  0  0  0  0  0  0  0
   -4.8964    0.0000    0.0000 C    0  0  0  0  0  0  0  0  0  0  0  0
   -3.2642    0.9423    0.0000 O    0  0  0  0  0  0  0  0  0  0  0  0
   -3.2642   -1.8846    0.0000 C    0  0  0  0  0  0  0  0  0  0  0  0
   -3.2642   -2.8269    0.0000 C    0  0  0  0  0  0  0  0  0  0  0  0
   -4.0803   -3.2981    0.0000 C    0  0  0  0  0  0  0  0  0  0  0  0
   -4.8964   -2.8269    0.0000 C    0  0  0  0  0  0  0  0  0  0  0  0
   -5.7124   -3.2981    0.0000 Cl   0  0  0  0  0  0  0  0  0  0  0  0
   -4.8964   -1.8846    0.0000 C    0  0  0  0  0  0  0  0  0  0  0  0
   -4.0803   -1.4135    0.0000 C    0  0  0  0  0  0  0  0  0  0  0  0
    0.8161   -4.2404    0.0000 C    0  0  0  0  0  0  0  0  0  0  0  0
    1.6321   -4.7115    0.0000 C    0  0  0  0  0  0  0  0  0  0  0  0
    2.4482   -4.2404    0.0000 C    0  0  0  0  0  0  0  0  0  0  0  0
    2.4482   -3.2981    0.0000 C    0  0  0  0  0  0  0  0  0  0  0  0
    3.2642   -2.8269    0.0000 C    0  0  0  0  0  0  0  0  0  0  0  0
    3.7354   -3.6430    0.0000 C    0  0  0  0  0  0  0  0  0  0  0  0
    4.2066   -2.8269    0.0000 C    0  0  0  0  0  0  0  0  0  0  0  0
    1.6321    0.9423    0.0000 C    0  0  0  0  0  0  0  0  0  0  0  0
    0.8161    1.4135    0.0000 C    0  0  0  0  0  0  0  0  0  0  0  0
    0.8161    2.3558    0.0000 C    0  0  0  0  0  0  0  0  0  0  0  0
    1.6321    2.8269    0.0000 C    0  0  0  0  0  0  0  0  0  0  0  0
    2.4482    2.3558    0.0000 C    0  0  0  0  0  0  0  0  0  0  0  0
    2.4482    1.4135    0.0000 C    0  0  0  0  0  0  0  0  0  0  0  0
    0.8161   -0.4712    0.0000 C    0  0  0  0  0  0  0  0  0  0  0  0
    0.8161   -1.4135    0.0000 C    0  0  0  0  0  0  0  0  0  0  0  0
    0.0000   -1.8846    0.0000 C    0  0  0  0  0  0  0  0  0  0  0  0
   -0.8161   -1.4135    0.0000 C    0  0  0  0  0  0  0  0  0  0  0  0
   -0.8161   -0.4712    0.0000 C    0  0  0  0  0  0  0  0  0  0  0  0
    0.0000    0.0000    0.0000 C    0  0  0  0  0  0  0  0  0  0  0  0
  1  2  1  0  0  0  0
  1 33  1  0  0  0  0
  1 39  1  0  0  0  0
  2  7  2  0  0  0  0
  2  3  1  0  0  0  0
  3  4  2  0  0  0  0
  4  5  1  0  0  0  0
  5  6  2  0  0  0  0
  6 30  1  0  0  0  0
  6  7  1  0  0  0  0
  7  8  1  0  0  0  0
  8  9  1  0  0  0  0
  9 29  2  0  0  0  0
  9 10  1  0  0  0  0
 10 11  1  0  0  0  0
 10 26  2  0  0  0  0
 11 12  1  6  0  0  0
 11 19  1  0  0  0  0
 12 13  1  0  0  0  0
 13 14  1  0  0  0  0
 13 18  2  1  0  0  0
 14 15  1  0  0  0  0
 14 16  1  0  0  0  0
 14 17  1  0  0  0  0
 19 25  2  0  0  0  0
 19 20  1  0  0  0  0
 20 21  2  0  0  0  0
 21 22  1  0  0  0  0
 22 23  1  0  0  0  0
 22 24  2  0  0  0  0
 24 25  1  0  0  0  0
 26 27  1  0  0  0  0
 27 28  2  0  0  0  0
 28 29  1  0  0  0  0
 29 30  1  0  0  0  0
 30 31  1  0  0  0  0
 30 32  1  0  0  0  0
 33 38  2  0  0  0  0
 33 34  1  0  0  0  0
 34 35  2  0  0  0  0
 35 36  1  0  0  0  0
 36 37  2  0  0  0  0
 37 38  1  0  0  0  0
 39 44  2  0  0  0  0
 39 40  1  0  0  0  0
 40 41  2  0  0  0  0
 41 42  1  0  0  0  0
 42 43  2  0  0  0  0
 43 44  1  0  0  0  0
M  END
> <NMREDATA_VERSION>
1.1

> <NMREDATA_LEVEL>
0

> <NMREDATA_SOLVENT>
CDCl3

> <NMREDATA_FORMULA>
C38H37ClNO2PS

> <NMREDATA_SMILES>
Clc1ccc(cc1)[C@@H](c1cccc2c1Oc1c(cccc1C2(C)C)P(c1ccccc1)c1ccccc1)N[S@](=O)C(C)(C)C

> <NMREDATA_ASSIGNMENT>
P1, -18.01, 1

> <NMREDATA_1D_31P>
Larmor=202
-18.01, L=P1

$$$$
