
 OpenBabel06112616482D

 39 42  0  0  1  0  0  0  0  0999 V2000
    5.1547   -5.3035    0.0000 C   0  0  3  0  0  0  0  0  0  0  0  0
    4.2036   -4.9945    0.0000 C   0  0  0  0  0  0  0  0  0  0  0  0
    3.2526   -4.6855    0.0000 N   0  0  0  0  0  0  0  0  0  0  0  0
    5.4637   -4.3525    0.0000 C   0  0  0  0  0  0  0  0  0  0  0  0
    4.7946   -3.6093    0.0000 C   0  0  0  0  0  0  0  0  0  0  0  0
    3.8164   -3.8172    0.0000 C   0  0  0  0  0  0  0  0  0  0  0  0
    3.1473   -3.0741    0.0000 C   0  0  0  0  0  0  0  0  0  0  0  0
    3.4563   -2.1230    0.0000 C   0  0  0  0  0  0  0  0  0  0  0  0
    2.7872   -1.3799    0.0000 C   0  0  0  0  0  0  0  0  0  0  0  0
    1.8090   -1.5878    0.0000 C   0  0  0  0  0  0  0  0  0  0  0  0
    1.5000   -2.5388    0.0000 C   0  0  0  0  0  0  0  0  0  0  0  0
    0.5000   -2.5388    0.0000 C   0  0  0  0  0  0  0  0  0  0  0  0
    0.1910   -1.5878    0.0000 C   0  0  0  0  0  0  0  0  0  0  0  0
    1.0000   -1.0000    0.0000 N   0  0  0  0  0  0  0  0  0  0  0  0
    1.0000    0.0000    0.0000 S   0  0  0  0  0  0  0  0  0  0  0  0
    2.0000    0.0000    0.0000 O   0  0  0  0  0  0  0  0  0  0  0  0
    1.0000    1.0000    0.0000 O   0  0  0  0  0  0  0  0  0  0  0  0
    0.0000    0.0000    0.0000 C   0  0  0  0  0  0  0  0  0  0  0  0
   -0.5000   -0.8660    0.0000 C   0  0  0  0  0  0  0  0  0  0  0  0
   -1.5000   -0.8660    0.0000 C   0  0  0  0  0  0  0  0  0  0  0  0
   -2.0000    0.0000    0.0000 C   0  0  0  0  0  0  0  0  0  0  0  0
   -3.0000    0.0000    0.0000 C   0  0  0  0  0  0  0  0  0  0  0  0
   -1.5000    0.8660    0.0000 C   0  0  0  0  0  0  0  0  0  0  0  0
   -0.5000    0.8660    0.0000 C   0  0  0  0  0  0  0  0  0  0  0  0
    2.1691   -3.2820    0.0000 C   0  0  0  0  0  0  0  0  0  0  0  0
    4.8457   -6.2546    0.0000 C   0  0  0  0  0  0  0  0  0  0  0  0
    5.5148   -6.9977    0.0000 C   0  0  0  0  0  0  0  0  0  0  0  0
    5.2058   -7.9488    0.0000 C   0  0  0  0  0  0  0  0  0  0  0  0
    4.2276   -8.1567    0.0000 C   0  0  0  0  0  0  0  0  0  0  0  0
    3.5585   -7.4135    0.0000 C   0  0  0  0  0  0  0  0  0  0  0  0
    3.8675   -6.4625    0.0000 C   0  0  0  0  0  0  0  0  0  0  0  0
    6.1057   -5.6125    0.0000 P   0  0  0  0  0  0  0  0  0  0  0  0
    5.7967   -6.5636    0.0000 O   0  0  0  0  0  0  0  0  0  0  0  0
    7.0568   -5.9215    0.0000 O   0  0  0  0  0  0  0  0  0  0  0  0
    7.2647   -6.8997    0.0000 C   0  0  0  0  0  0  0  0  0  0  0  0
    6.5215   -7.5688    0.0000 C   0  0  0  0  0  0  0  0  0  0  0  0
    6.4147   -4.6615    0.0000 O   0  0  0  0  0  0  0  0  0  0  0  0
    7.3929   -4.4536    0.0000 C   0  0  0  0  0  0  0  0  0  0  0  0
    8.0620   -5.1967    0.0000 C   0  0  0  0  0  0  0  0  0  0  0  0
  1  2  1  0  0  0  0
  1  4  1  0  0  0  0
  1 26  1  0  0  0  0
  1 32  1  0  0  0  0
  2  3  3  0  0  0  0
  4  5  1  0  0  0  0
  5  6  2  0  0  0  0
  6  7  1  0  0  0  0
  7 25  2  0  0  0  0
  7  8  1  0  0  0  0
  8  9  2  0  0  0  0
  9 10  1  0  0  0  0
 10 14  1  0  0  0  0
 10 11  2  0  0  0  0
 11 12  1  0  0  0  0
 11 25  1  0  0  0  0
 12 13  2  0  0  0  0
 13 14  1  0  0  0  0
 14 15  1  0  0  0  0
 15 16  2  0  0  0  0
 15 17  2  0  0  0  0
 15 18  1  0  0  0  0
 18 24  2  0  0  0  0
 18 19  1  0  0  0  0
 19 20  2  0  0  0  0
 20 21  1  0  0  0  0
 21 22  1  0  0  0  0
 21 23  2  0  0  0  0
 23 24  1  0  0  0  0
 26 31  2  0  0  0  0
 26 27  1  0  0  0  0
 27 28  2  0  0  0  0
 28 29  1  0  0  0  0
 29 30  2  0  0  0  0
 30 31  1  0  0  0  0
 32 33  2  0  0  0  0
 32 34  1  0  0  0  0
 32 37  1  0  0  0  0
 34 35  1  0  0  0  0
 35 36  1  0  0  0  0
 37 38  1  0  0  0  0
 38 39  1  0  0  0  0
M  END
> <NMREDATA_VERSION>
1.1

> <NMREDATA_LEVEL>
0

> <NMREDATA_SOLVENT>
CDCl3

> <NMREDATA_FORMULA>
C30H31N2O5PS

> <NMREDATA_SMILES>
CCOP(=O)(C(c1ccccc1)(C/C=C/c1ccc2c(c1)ccn2S(=O)(=O)c1ccc(cc1)C)C#N)OCC

> <NMREDATA_ASSIGNMENT>
P32, 17.38, 32

> <NMREDATA_1D_31P>
Larmor=162
17.38, L=P32

$$$$
