
 OpenBabel06112616482D

 25 28  0  0  0  0  0  0  0  0999 V2000
   -0.8090    3.5878    0.0000 N   0  0  0  0  0  0  0  0  0  0  0  0
   -1.7601    3.2788    0.0000 C   0  0  0  0  0  0  0  0  0  0  0  0
   -1.9680    2.3006    0.0000 C   0  0  0  0  0  0  0  0  0  0  0  0
   -2.9190    1.9916    0.0000 C   0  0  0  0  0  0  0  0  0  0  0  0
   -3.6622    2.6607    0.0000 C   0  0  0  0  0  0  0  0  0  0  0  0
   -3.4543    3.6389    0.0000 C   0  0  0  0  0  0  0  0  0  0  0  0
   -2.5032    3.9479    0.0000 C   0  0  0  0  0  0  0  0  0  0  0  0
   -0.5000    4.5388    0.0000 C   0  0  0  0  0  0  0  0  0  0  0  0
    0.5000    4.5388    0.0000 C   0  0  0  0  0  0  0  0  0  0  0  0
    0.8090    3.5878    0.0000 N   0  0  0  0  0  0  0  0  0  0  0  0
    1.7601    3.2788    0.0000 C   0  0  0  0  0  0  0  0  0  0  0  0
    2.5032    3.9479    0.0000 C   0  0  0  0  0  0  0  0  0  0  0  0
    3.4543    3.6389    0.0000 C   0  0  0  0  0  0  0  0  0  0  0  0
    3.6622    2.6607    0.0000 C   0  0  0  0  0  0  0  0  0  0  0  0
    2.9190    1.9916    0.0000 C   0  0  0  0  0  0  0  0  0  0  0  0
    1.9680    2.3006    0.0000 C   0  0  0  0  0  0  0  0  0  0  0  0
    0.0000    3.0000    0.0000 P   0  0  0  0  0  0  0  0  0  0  0  0
    0.0000    2.0000    0.0000 O   0  0  0  0  0  0  0  0  0  0  0  0
    0.8660    1.5000    0.0000 C   0  0  0  0  0  0  0  0  0  0  0  0
    0.8660    0.5000    0.0000 C   0  0  0  0  0  0  0  0  0  0  0  0
    1.7321    0.0000    0.0000 C   0  0  0  0  0  0  0  0  0  0  0  0
    1.7321   -1.0000    0.0000 C   0  0  0  0  0  0  0  0  0  0  0  0
    0.8660   -1.5000    0.0000 C   0  0  0  0  0  0  0  0  0  0  0  0
    0.0000   -1.0000    0.0000 C   0  0  0  0  0  0  0  0  0  0  0  0
    0.0000    0.0000    0.0000 C   0  0  0  0  0  0  0  0  0  0  0  0
  1 17  1  0  0  0  0
  1  2  1  0  0  0  0
  1  8  1  0  0  0  0
  2  7  2  0  0  0  0
  2  3  1  0  0  0  0
  3  4  2  0  0  0  0
  4  5  1  0  0  0  0
  5  6  2  0  0  0  0
  6  7  1  0  0  0  0
  8  9  1  0  0  0  0
  9 10  1  0  0  0  0
 10 11  1  0  0  0  0
 10 17  1  0  0  0  0
 11 16  2  0  0  0  0
 11 12  1  0  0  0  0
 12 13  2  0  0  0  0
 13 14  1  0  0  0  0
 14 15  2  0  0  0  0
 15 16  1  0  0  0  0
 17 18  1  0  0  0  0
 18 19  1  0  0  0  0
 19 20  1  0  0  0  0
 20 25  2  0  0  0  0
 20 21  1  0  0  0  0
 21 22  2  0  0  0  0
 22 23  1  0  0  0  0
 23 24  2  0  0  0  0
 24 25  1  0  0  0  0
M  END
> <NMREDATA_VERSION>
1.1

> <NMREDATA_LEVEL>
0

> <NMREDATA_SOLVENT>
CDCl3

> <NMREDATA_FORMULA>
C21H21N2OP

> <NMREDATA_SMILES>
c1ccc(cc1)COP1N(CCN1c1ccccc1)c1ccccc1

> <NMREDATA_ASSIGNMENT>
P17, 103.60, 17

> <NMREDATA_1D_31P>
Larmor=162
103.60, L=P17

$$$$
