
 OpenBabel06112616442D

 52 60  0  0  1  0  0  0  0  0999 V2000
    1.2755    1.9796    0.0000 C   0  0  0  0  0  0  0  0  0  0  0  0
    1.3783    1.0014    0.0000 C   0  0  0  0  0  0  0  0  0  0  0  0
    0.4797    1.4015    0.0000 C   0  0  0  0  0  0  0  0  0  0  0  0
    2.3565    1.1042    0.0000 C   0  0  0  0  0  0  0  0  0  0  0  0
    0.9782    0.1028    0.0000 C   0  0  0  0  0  0  0  0  0  0  0  0
    1.5564   -0.6929    0.0000 C   0  0  0  0  0  0  0  0  0  0  0  0
    1.1563   -1.5915    0.0000 C   0  0  0  0  0  0  0  0  0  0  0  0
    1.7344   -2.3873    0.0000 C   0  0  0  0  0  0  0  0  0  0  0  0
    2.6330   -2.7873    0.0000 C   0  0  0  0  0  0  0  0  0  0  0  0
    2.5302   -1.8091    0.0000 C   0  0  0  0  0  0  0  0  0  0  0  0
    1.3344   -3.2858    0.0000 C   0  0  0  0  0  0  0  0  0  0  0  0
    0.1781   -1.6943    0.0000 C   0  0  0  0  0  0  0  0  0  0  0  0
   -0.4001   -0.8986    0.0000 C   0  0  0  0  0  0  0  0  0  0  0  0
   -2.3565   -1.1042    0.0000 C   0  0  1  0  0  0  0  0  0  0  0  0
   -2.8483   -1.9560    0.0000 C   0  0  0  0  0  0  0  0  0  0  0  0
   -3.8104   -1.7515    0.0000 C   0  0  0  0  0  0  0  0  0  0  0  0
   -3.9132   -0.7733    0.0000 C   0  0  2  0  0  0  0  0  0  0  0  0
   -4.7651   -0.2815    0.0000 C   0  0  0  0  0  0  0  0  0  0  0  0
   -5.6169   -0.7733    0.0000 C   0  0  0  0  0  0  0  0  0  0  0  0
   -6.4687   -0.2815    0.0000 C   0  0  0  0  0  0  0  0  0  0  0  0
   -6.4687    0.7021    0.0000 C   0  0  0  0  0  0  0  0  0  0  0  0
   -7.3205    1.1939    0.0000 C   0  0  0  0  0  0  0  0  0  0  0  0
   -7.3205    2.1775    0.0000 C   0  0  0  0  0  0  0  0  0  0  0  0
   -6.4687    2.6693    0.0000 C   0  0  0  0  0  0  0  0  0  0  0  0
   -5.6169    2.1775    0.0000 C   0  0  0  0  0  0  0  0  0  0  0  0
   -5.6169    1.1939    0.0000 C   0  0  0  0  0  0  0  0  0  0  0  0
   -4.7651    0.7021    0.0000 C   0  0  0  0  0  0  0  0  0  0  0  0
   -3.0147   -0.3732    0.0000 N   0  0  0  0  0  0  0  0  0  0  0  0
   -2.8102    0.5889    0.0000 P   0  0  0  0  0  0  0  0  0  0  0  0
   -3.5883    1.1906    0.0000 O   0  0  0  0  0  0  0  0  0  0  0  0
   -3.6030    2.1741    0.0000 C   0  0  0  0  0  0  0  0  0  0  0  0
   -4.5239    2.5197    0.0000 C   0  0  0  0  0  0  0  0  0  0  0  0
   -4.6850    3.4900    0.0000 C   0  0  0  0  0  0  0  0  0  0  0  0
   -3.9252    4.1147    0.0000 C   0  0  0  0  0  0  0  0  0  0  0  0
   -4.0864    5.0850    0.0000 C   0  0  0  0  0  0  0  0  0  0  0  0
   -3.3266    5.7097    0.0000 C   0  0  0  0  0  0  0  0  0  0  0  0
   -2.4057    5.3641    0.0000 C   0  0  0  0  0  0  0  0  0  0  0  0
   -2.2446    4.3938    0.0000 C   0  0  0  0  0  0  0  0  0  0  0  0
   -3.0044    3.7691    0.0000 C   0  0  0  0  0  0  0  0  0  0  0  0
   -2.8432    2.7988    0.0000 C   0  0  0  0  0  0  0  0  0  0  0  0
   -1.8811    2.5943    0.0000 C   0  0  0  0  0  0  0  0  0  0  0  0
   -1.4411    1.7146    0.0000 C   0  0  0  0  0  0  0  0  0  0  0  0
   -0.4593    1.6557    0.0000 C   0  0  0  0  0  0  0  0  0  0  0  0
    0.0826    2.4766    0.0000 C   0  0  0  0  0  0  0  0  0  0  0  0
   -0.3574    3.3563    0.0000 C   0  0  0  0  0  0  0  0  0  0  0  0
    0.1845    4.1772    0.0000 C   0  0  0  0  0  0  0  0  0  0  0  0
   -0.2555    5.0569    0.0000 C   0  0  0  0  0  0  0  0  0  0  0  0
   -1.2374    5.1158    0.0000 C   0  0  0  0  0  0  0  0  0  0  0  0
   -1.7792    4.2949    0.0000 C   0  0  0  0  0  0  0  0  0  0  0  0
   -1.3392    3.4152    0.0000 C   0  0  0  0  0  0  0  0  0  0  0  0
   -1.8546    0.8221    0.0000 O   0  0  0  0  0  0  0  0  0  0  0  0
    0.0000    0.0000    0.0000 C   0  0  0  0  0  0  0  0  0  0  0  0
  1  2  1  0  0  0  0
  2  3  1  0  0  0  0
  2  4  1  0  0  0  0
  2  5  1  0  0  0  0
  5 52  2  0  0  0  0
  5  6  1  0  0  0  0
  6  7  2  0  0  0  0
  7  8  1  0  0  0  0
  7 12  1  0  0  0  0
  8  9  1  0  0  0  0
  8 10  1  0  0  0  0
  8 11  1  0  0  0  0
 12 13  2  0  0  0  0
 13 52  1  0  0  0  0
 14 13  1  1  0  0  0
 14 15  1  0  0  0  0
 14 28  1  0  0  0  0
 15 16  1  0  0  0  0
 16 17  1  0  0  0  0
 17 18  1  6  0  0  0
 17 28  1  0  0  0  0
 18 27  2  0  0  0  0
 18 19  1  0  0  0  0
 19 20  2  0  0  0  0
 20 21  1  0  0  0  0
 21 26  2  0  0  0  0
 21 22  1  0  0  0  0
 22 23  2  0  0  0  0
 23 24  1  0  0  0  0
 24 25  2  0  0  0  0
 25 26  1  0  0  0  0
 26 27  1  0  0  0  0
 28 29  1  0  0  0  0
 29 51  1  0  0  0  0
 29 30  1  0  0  0  0
 30 31  1  0  0  0  0
 31 40  2  0  0  0  0
 31 32  1  0  0  0  0
 32 33  2  0  0  0  0
 33 34  1  0  0  0  0
 34 39  2  0  0  0  0
 34 35  1  0  0  0  0
 35 36  2  0  0  0  0
 36 37  1  0  0  0  0
 37 38  2  0  0  0  0
 38 39  1  0  0  0  0
 39 40  1  0  0  0  0
 40 41  1  0  0  0  0
 41 50  2  0  0  0  0
 41 42  1  0  0  0  0
 42 43  2  0  0  0  0
 42 51  1  0  0  0  0
 43 44  1  0  0  0  0
 44 45  2  0  0  0  0
 45 50  1  0  0  0  0
 45 46  1  0  0  0  0
 46 47  2  0  0  0  0
 47 48  1  0  0  0  0
 48 49  2  0  0  0  0
 49 50  1  0  0  0  0
M  END
> <NMREDATA_VERSION>
1.1

> <NMREDATA_LEVEL>
0

> <NMREDATA_SOLVENT>
CDCl3

> <NMREDATA_FORMULA>
C48H46NO2P

> <NMREDATA_SMILES>
CC(c1cc(cc(c1)C(C)(C)C)[C@H]1CC[C@@H](N1p1oc2ccc3c(c2c2c(o1)ccc1c2cccc1)cccc3)c1ccc2c(c1)cccc2)(C)C

> <NMREDATA_ASSIGNMENT>
P29, 146.00, 29

> <NMREDATA_1D_31P>
Larmor=162
146.00, L=P29

$$$$
