
 OpenBabel06112616452D

 29 32  0  0  0  0  0  0  0  0999 V2000
   -0.7601   -1.2788    0.0000 C   0  0  0  0  0  0  0  0  0  0  0  0
    0.1910   -1.5878    0.0000 C   0  0  0  0  0  0  0  0  0  0  0  0
    1.0000   -1.0000    0.0000 C   0  0  0  0  0  0  0  0  0  0  0  0
    1.0000    0.0000    0.0000 P   0  0  0  0  0  0  0  0  0  0  0  0
    2.0000    0.0000    0.0000 C   0  0  0  0  0  0  0  0  0  0  0  0
    2.5000    0.8660    0.0000 C   0  0  0  0  0  0  0  0  0  0  0  0
    3.5000    0.8660    0.0000 C   0  0  0  0  0  0  0  0  0  0  0  0
    4.0000    0.0000    0.0000 C   0  0  0  0  0  0  0  0  0  0  0  0
    3.5000   -0.8660    0.0000 C   0  0  0  0  0  0  0  0  0  0  0  0
    2.5000   -0.8660    0.0000 C   0  0  0  0  0  0  0  0  0  0  0  0
    1.0000    1.0000    0.0000 C   0  0  0  0  0  0  0  0  0  0  0  0
    0.1340    1.5000    0.0000 C   0  0  0  0  0  0  0  0  0  0  0  0
    0.1340    2.5000    0.0000 C   0  0  0  0  0  0  0  0  0  0  0  0
    1.0000    3.0000    0.0000 C   0  0  0  0  0  0  0  0  0  0  0  0
    1.8660    2.5000    0.0000 C   0  0  0  0  0  0  0  0  0  0  0  0
    1.8660    1.5000    0.0000 C   0  0  0  0  0  0  0  0  0  0  0  0
    0.0000    0.0000    0.0000 O   0  0  0  0  0  0  0  0  0  0  0  0
    1.8090   -1.5878    0.0000 C   0  0  0  0  0  0  0  0  0  0  0  0
    2.7872   -1.3799    0.0000 C   0  0  0  0  0  0  0  0  0  0  0  0
    3.4563   -2.1230    0.0000 C   0  0  0  0  0  0  0  0  0  0  0  0
    4.4344   -1.9151    0.0000 F   0  0  0  0  0  0  0  0  0  0  0  0
    3.1473   -3.0741    0.0000 C   0  0  0  0  0  0  0  0  0  0  0  0
    2.1691   -3.2820    0.0000 C   0  0  0  0  0  0  0  0  0  0  0  0
    1.5000   -2.5388    0.0000 C   0  0  0  0  0  0  0  0  0  0  0  0
    0.5000   -2.5388    0.0000 N   0  0  0  0  0  0  0  0  0  0  0  0
   -0.9680   -0.3006    0.0000 O   0  0  0  0  0  0  0  0  0  0  0  0
   -1.9190    0.0084    0.0000 C   0  0  0  0  0  0  0  0  0  0  0  0
   -2.6622   -0.6607    0.0000 C   0  0  0  0  0  0  0  0  0  0  0  0
   -1.5032   -1.9479    0.0000 O   0  0  0  0  0  0  0  0  0  0  0  0
  1  2  1  0  0  0  0
  1 26  1  0  0  0  0
  1 29  2  0  0  0  0
  2 25  1  0  0  0  0
  2  3  2  0  0  0  0
  3  4  1  0  0  0  0
  3 18  1  0  0  0  0
  4  5  1  0  0  0  0
  4 11  1  0  0  0  0
  4 17  2  0  0  0  0
  5 10  2  0  0  0  0
  5  6  1  0  0  0  0
  6  7  2  0  0  0  0
  7  8  1  0  0  0  0
  8  9  2  0  0  0  0
  9 10  1  0  0  0  0
 11 16  2  0  0  0  0
 11 12  1  0  0  0  0
 12 13  2  0  0  0  0
 13 14  1  0  0  0  0
 14 15  2  0  0  0  0
 15 16  1  0  0  0  0
 18 24  2  0  0  0  0
 18 19  1  0  0  0  0
 19 20  2  0  0  0  0
 20 21  1  0  0  0  0
 20 22  1  0  0  0  0
 22 23  2  0  0  0  0
 23 24  1  0  0  0  0
 24 25  1  0  0  0  0
 26 27  1  0  0  0  0
 27 28  1  0  0  0  0
M  END
> <NMREDATA_VERSION>
1.1

> <NMREDATA_LEVEL>
0

> <NMREDATA_SOLVENT>
DMSO-d6

> <NMREDATA_FORMULA>
C23H19FNO3P

> <NMREDATA_SMILES>
CCOC(=O)c1[nH]c2c(c1P(=O)(c1ccccc1)c1ccccc1)cc(cc2)F

> <NMREDATA_ASSIGNMENT>
P4, 21.50, 4

> <NMREDATA_1D_31P>
Larmor=162
21.50, L=P4

$$$$
