
 OpenBabel06112616442D

 43 44  0  0  1  0  0  0  0  0999 V2000
    6.7939   -7.3750    0.0000 C    0  0  0  0  0  0  0  0  0  0  0  0
    6.0000   -7.8333    0.0000 C    0  0  0  0  0  0  0  0  0  0  0  0
    5.5417   -8.6272    0.0000 C    0  0  0  0  0  0  0  0  0  0  0  0
    6.4583   -8.6272    0.0000 C    0  0  0  0  0  0  0  0  0  0  0  0
    5.2061   -7.3750    0.0000 O    0  0  0  0  0  0  0  0  0  0  0  0
    5.2061   -6.4583    0.0000 C    0  0  0  0  0  0  0  0  0  0  0  0
    6.0000   -6.0000    0.0000 O    0  0  0  0  0  0  0  0  0  0  0  0
    4.4123   -6.0000    0.0000 N    0  0  0  0  0  0  0  0  0  0  0  0
    4.4123   -5.0833    0.0000 C    0  0  1  0  0  0  0  0  0  0  0  0
    6.0000   -4.1667    0.0000 C    0  0  0  0  0  0  0  0  0  0  0  0
    6.0000   -3.2500    0.0000 P    0  3  0  0  0  0  0  0  0  0  0  0
    6.9167   -3.2500    0.0000 C    0  0  0  0  0  0  0  0  0  0  0  0
    7.3750   -4.0439    0.0000 C    0  0  0  0  0  0  0  0  0  0  0  0
    6.9167   -4.8377    0.0000 C    0  0  0  0  0  0  0  0  0  0  0  0
    7.3750   -5.6316    0.0000 C    0  0  0  0  0  0  0  0  0  0  0  0
    6.9167   -6.4254    0.0000 C    0  0  0  0  0  0  0  0  0  0  0  0
    8.2917   -5.6316    0.0000 C    0  0  0  0  0  0  0  0  0  0  0  0
    8.7500   -4.8377    0.0000 C    0  0  0  0  0  0  0  0  0  0  0  0
    9.6667   -4.8377    0.0000 C    0  0  0  0  0  0  0  0  0  0  0  0
    8.2917   -4.0439    0.0000 C    0  0  0  0  0  0  0  0  0  0  0  0
    6.0000   -2.3333    0.0000 C    0  0  0  0  0  0  0  0  0  0  0  0
    5.2061   -1.8750    0.0000 C    0  0  0  0  0  0  0  0  0  0  0  0
    5.2061   -0.9583    0.0000 C    0  0  0  0  0  0  0  0  0  0  0  0
    6.0000   -0.5000    0.0000 C    0  0  0  0  0  0  0  0  0  0  0  0
    6.7939   -0.9583    0.0000 C    0  0  0  0  0  0  0  0  0  0  0  0
    6.7939   -1.8750    0.0000 C    0  0  0  0  0  0  0  0  0  0  0  0
    2.3333   -3.2500    0.0000 C    0  0  0  0  0  0  0  0  0  0  0  0
    1.8750   -4.0439    0.0000 C    0  0  0  0  0  0  0  0  0  0  0  0
    0.9583   -4.0439    0.0000 C    0  0  0  0  0  0  0  0  0  0  0  0
    0.5000   -3.2500    0.0000 C    0  0  0  0  0  0  0  0  0  0  0  0
    0.9583   -2.4561    0.0000 C    0  0  0  0  0  0  0  0  0  0  0  0
    1.8750   -2.4561    0.0000 C    0  0  0  0  0  0  0  0  0  0  0  0
    3.6184   -4.6250    0.0000 C    0  0  1  0  0  0  0  0  0  0  0  0
    2.8246   -5.0833    0.0000 O    0  0  0  0  0  0  0  0  0  0  0  0
    2.8246   -6.0000    0.0000 Si   0  0  0  0  0  0  0  0  0  0  0  0
    3.7412   -6.0000    0.0000 C    0  0  0  0  0  0  0  0  0  0  0  0
    2.8246   -6.9167    0.0000 C    0  0  0  0  0  0  0  0  0  0  0  0
    1.9079   -6.0000    0.0000 C    0  0  0  0  0  0  0  0  0  0  0  0
    1.1141   -5.5417    0.0000 C    0  0  0  0  0  0  0  0  0  0  0  0
    1.9079   -5.0833    0.0000 C    0  0  0  0  0  0  0  0  0  0  0  0
    1.4496   -6.7939    0.0000 C    0  0  0  0  0  0  0  0  0  0  0  0
    3.6184   -3.7083    0.0000 C    0  0  0  0  0  0  0  0  0  0  0  0
   10.6667   -0.5000    0.0000 Br   0  5  0  0  0  0  0  0  0  0  0  0
  1  2  1  0  0  0  0
  2  3  1  0  0  0  0
  2  4  1  0  0  0  0
  2  5  1  0  0  0  0
  5  6  1  0  0  0  0
  6  7  2  0  0  0  0
  6  8  1  0  0  0  0
  8  9  1  0  0  0  0
  9 10  1  6  0  0  0
  9 33  1  0  0  0  0
 10 11  1  0  0  0  0
 11 12  1  0  0  0  0
 11 21  1  0  0  0  0
 11 27  1  0  0  0  0
 12 13  1  0  0  0  0
 13 20  2  0  0  0  0
 13 14  1  0  0  0  0
 14 15  2  0  0  0  0
 15 16  1  0  0  0  0
 15 17  1  0  0  0  0
 17 18  2  0  0  0  0
 18 19  1  0  0  0  0
 18 20  1  0  0  0  0
 21 26  2  0  0  0  0
 21 22  1  0  0  0  0
 22 23  2  0  0  0  0
 23 24  1  0  0  0  0
 24 25  2  0  0  0  0
 25 26  1  0  0  0  0
 27 32  2  0  0  0  0
 27 28  1  0  0  0  0
 28 29  2  0  0  0  0
 29 30  1  0  0  0  0
 30 31  2  0  0  0  0
 31 32  1  0  0  0  0
 33 34  1  0  0  0  0
 33 42  1  1  0  0  0
 34 35  1  0  0  0  0
 35 36  1  0  0  0  0
 35 37  1  0  0  0  0
 35 38  1  0  0  0  0
 38 39  1  0  0  0  0
 38 40  1  0  0  0  0
 38 41  1  0  0  0  0
M  END
> <NMREDATA_VERSION>
1.1

> <NMREDATA_LEVEL>
0

> <NMREDATA_SOLVENT>
CDCl3

> <NMREDATA_FORMULA>
C36H53BrNO3PSi

> <NMREDATA_SMILES>
O=C(OC(C)(C)C)N[C@H]([C@@H](O[Si](C(C)(C)C)(C)C)C)CP(c1ccccc1)(c1ccccc1)Cc1cc(C)cc(c1)C.Br

> <NMREDATA_ASSIGNMENT>
P11, 26.14, 11

> <NMREDATA_1D_31P>
Larmor=162
26.14, L=P11

$$$$
