
 OpenBabel06112616462D

 24 25  0  0  1  0  0  0  0  0999 V2000
   -3.5265   -0.6564    0.0000 C   0  0  0  0  0  0  0  0  0  0  0  0
   -2.5388   -0.5000    0.0000 C   0  0  2  0  0  0  0  0  0  0  0  0
   -2.4957    0.4991    0.0000 C   0  0  0  0  0  0  0  0  0  0  0  0
   -1.5878   -0.1910    0.0000 C   0  0  0  0  0  0  0  0  0  0  0  0
   -1.0000   -1.0000    0.0000 C   0  0  1  0  0  0  0  0  0  0  0  0
    0.0000   -1.0000    0.0000 P   0  0  0  0  0  0  0  0  0  0  0  0
    0.0000   -2.0000    0.0000 O   0  0  0  0  0  0  0  0  0  0  0  0
    1.0000   -1.0000    0.0000 O   0  0  0  0  0  0  0  0  0  0  0  0
    1.5000   -0.1340    0.0000 C   0  0  0  0  0  0  0  0  0  0  0  0
    2.5000   -0.1340    0.0000 C   0  0  0  0  0  0  0  0  0  0  0  0
    0.0000    0.0000    0.0000 O   0  0  0  0  0  0  0  0  0  0  0  0
    0.8660    0.5000    0.0000 C   0  0  0  0  0  0  0  0  0  0  0  0
    0.8660    1.5000    0.0000 C   0  0  0  0  0  0  0  0  0  0  0  0
   -1.5878   -1.8090    0.0000 N   0  0  0  0  0  0  0  0  0  0  0  0
   -2.5388   -1.5000    0.0000 C   0  0  1  0  0  0  0  0  0  0  0  0
   -3.3479   -2.0878    0.0000 C   0  0  0  0  0  0  0  0  0  0  0  0
   -3.2433   -3.0823    0.0000 C   0  0  0  0  0  0  0  0  0  0  0  0
   -4.0523   -3.6701    0.0000 C   0  0  0  0  0  0  0  0  0  0  0  0
   -4.9659   -3.2634    0.0000 C   0  0  0  0  0  0  0  0  0  0  0  0
   -5.0704   -2.2688    0.0000 C   0  0  0  0  0  0  0  0  0  0  0  0
   -4.2614   -1.6810    0.0000 C   0  0  0  0  0  0  0  0  0  0  0  0
   -4.1559    0.1207    0.0000 O   0  0  0  0  0  0  0  0  0  0  0  0
   -3.7975    1.0543    0.0000 C   0  0  0  0  0  0  0  0  0  0  0  0
   -3.8849   -1.5900    0.0000 O   0  0  0  0  0  0  0  0  0  0  0  0
  1  2  1  0  0  0  0
  1 22  1  0  0  0  0
  1 24  2  0  0  0  0
  2 15  1  0  0  0  0
  2  3  1  1  0  0  0
  2  4  1  0  0  0  0
  4  5  1  0  0  0  0
  5  6  1  1  0  0  0
  5 14  1  0  0  0  0
  6  7  2  0  0  0  0
  6  8  1  0  0  0  0
  6 11  1  0  0  0  0
  8  9  1  0  0  0  0
  9 10  1  0  0  0  0
 11 12  1  0  0  0  0
 12 13  1  0  0  0  0
 14 15  1  0  0  0  0
 15 16  1  1  0  0  0
 16 21  2  0  0  0  0
 16 17  1  0  0  0  0
 17 18  2  0  0  0  0
 18 19  1  0  0  0  0
 19 20  2  0  0  0  0
 20 21  1  0  0  0  0
 22 23  1  0  0  0  0
M  END
> <NMREDATA_VERSION>
1.1

> <NMREDATA_LEVEL>
0

> <NMREDATA_SOLVENT>
CDCl3

> <NMREDATA_FORMULA>
C17H26NO5P

> <NMREDATA_SMILES>
CCOP(=O)([C@H]1N[C@H]([C@](C1)(C)C(=O)OC)c1ccccc1)OCC

> <NMREDATA_ASSIGNMENT>
P6, 26.50, 6

> <NMREDATA_1D_31P>
Larmor=243
26.50, L=P6

$$$$
