
 OpenBabel06112616492D

 25 27  0  0  0  0  0  0  0  0999 V2000
    1.0000   -1.0000    0.0000 C   0  0  0  0  0  0  0  0  0  0  0  0
    1.0000    0.0000    0.0000 P   0  0  3  0  0  0  0  0  0  0  0  0
    2.0000    0.0000    0.0000 O   0  0  0  0  0  0  0  0  0  0  0  0
    1.0000    1.0000    0.0000 O   0  0  0  0  0  0  0  0  0  0  0  0
    1.8660    1.5000    0.0000 C   0  0  0  0  0  0  0  0  0  0  0  0
    2.7321    1.0000    0.0000 C   0  0  0  0  0  0  0  0  0  0  0  0
    2.9909    0.0341    0.0000 C   0  0  0  0  0  0  0  0  0  0  0  0
    3.9568    0.2929    0.0000 N   0  0  0  0  0  0  0  0  0  0  0  0
    4.8228   -0.2071    0.0000 C   0  0  0  0  0  0  0  0  0  0  0  0
    5.6888    0.2929    0.0000 O   0  0  0  0  0  0  0  0  0  0  0  0
    6.5549   -0.2071    0.0000 C   0  0  0  0  0  0  0  0  0  0  0  0
    7.0549   -1.0731    0.0000 C   0  0  0  0  0  0  0  0  0  0  0  0
    6.0549   -1.0731    0.0000 C   0  0  0  0  0  0  0  0  0  0  0  0
    7.4209    0.2929    0.0000 C   0  0  0  0  0  0  0  0  0  0  0  0
    4.8228   -1.2071    0.0000 O   0  0  0  0  0  0  0  0  0  0  0  0
    3.6980    1.2588    0.0000 C   0  0  0  0  0  0  0  0  0  0  0  0
    0.0000    0.0000    0.0000 C   0  0  0  0  0  0  0  0  0  0  0  0
   -0.7071   -0.7071    0.0000 C   0  0  0  0  0  0  0  0  0  0  0  0
   -1.4142    0.0000    0.0000 C   0  0  0  0  0  0  0  0  0  0  0  0
   -0.7071    0.7071    0.0000 C   0  0  0  0  0  0  0  0  0  0  0  0
    1.8660   -1.5000    0.0000 C   0  0  0  0  0  0  0  0  0  0  0  0
    1.8660   -2.5000    0.0000 C   0  0  0  0  0  0  0  0  0  0  0  0
    1.0000   -3.0000    0.0000 C   0  0  0  0  0  0  0  0  0  0  0  0
    0.1340   -2.5000    0.0000 C   0  0  0  0  0  0  0  0  0  0  0  0
    0.1340   -1.5000    0.0000 C   0  0  0  0  0  0  0  0  0  0  0  0
  1 25  2  0  0  0  0
  1  2  1  0  0  0  0
  1 21  1  0  0  0  0
  2  3  2  0  0  0  0
  2  4  1  0  0  0  0
  2 17  1  0  0  0  0
  4  5  1  0  0  0  0
  5  6  1  0  0  0  0
  6 16  1  0  0  0  0
  6  7  1  0  0  0  0
  7  8  1  0  0  0  0
  8  9  1  0  0  0  0
  8 16  1  0  0  0  0
  9 10  1  0  0  0  0
  9 15  2  0  0  0  0
 10 11  1  0  0  0  0
 11 12  1  0  0  0  0
 11 13  1  0  0  0  0
 11 14  1  0  0  0  0
 17 20  1  0  0  0  0
 17 18  1  0  0  0  0
 18 19  1  0  0  0  0
 19 20  1  0  0  0  0
 21 22  2  0  0  0  0
 22 23  1  0  0  0  0
 23 24  2  0  0  0  0
 24 25  1  0  0  0  0
M  END
> <NMREDATA_VERSION>
1.1

> <NMREDATA_LEVEL>
0

> <NMREDATA_SOLVENT>
CDCl3

> <NMREDATA_FORMULA>
C19H28NO4P

> <NMREDATA_SMILES>
O=C(N1CC(C1)COP(=O)(c1ccccc1)C1CCC1)OC(C)(C)C

> <NMREDATA_ASSIGNMENT>
P2, 44.52, 2

> <NMREDATA_1D_31P>
Larmor=202
44.52, L=P2

$$$$
