
 OpenBabel06112616482D

 30 33  0  0  1  0  0  0  0  0999 V2000
    2.6275   -1.6569    0.0000 C   0  0  0  0  0  0  0  0  0  0  0  0
    1.6569   -1.6569    0.0000 C   0  0  0  0  0  0  0  0  0  0  0  0
    0.9706   -2.3432    0.0000 C   0  0  0  0  0  0  0  0  0  0  0  0
    0.2843   -1.6569    0.0000 C   0  0  1  0  0  0  0  0  0  0  0  0
   -1.6569   -1.6569    0.0000 C   0  0  0  0  0  0  0  0  0  0  0  0
   -2.1422   -0.8163    0.0000 O   0  0  0  0  0  0  0  0  0  0  0  0
   -2.1422   -2.4975    0.0000 N   0  0  0  0  0  0  0  0  0  0  0  0
   -3.1128   -2.4975    0.0000 C   0  0  0  0  0  0  0  0  0  0  0  0
   -1.6569   -3.3380    0.0000 O   0  0  0  0  0  0  0  0  0  0  0  0
   -2.1422   -4.1786    0.0000 C   0  0  0  0  0  0  0  0  0  0  0  0
    0.9706   -0.9706    0.0000 C   0  0  2  0  0  0  0  0  0  0  0  0
    0.9706    0.0000    0.0000 P   0  0  0  0  0  0  0  0  0  0  0  0
    1.9412    0.0000    0.0000 O   0  0  0  0  0  0  0  0  0  0  0  0
    0.9706    0.9706    0.0000 C   0  0  0  0  0  0  0  0  0  0  0  0
    0.1300    1.4559    0.0000 C   0  0  0  0  0  0  0  0  0  0  0  0
    0.1300    2.4265    0.0000 C   0  0  0  0  0  0  0  0  0  0  0  0
    0.9706    2.9118    0.0000 C   0  0  0  0  0  0  0  0  0  0  0  0
    1.8111    2.4265    0.0000 C   0  0  0  0  0  0  0  0  0  0  0  0
    1.8111    1.4559    0.0000 C   0  0  0  0  0  0  0  0  0  0  0  0
    0.0000    0.0000    0.0000 C   0  0  0  0  0  0  0  0  0  0  0  0
   -0.4853   -0.8406    0.0000 C   0  0  0  0  0  0  0  0  0  0  0  0
   -1.4559   -0.8406    0.0000 C   0  0  0  0  0  0  0  0  0  0  0  0
   -1.9412    0.0000    0.0000 C   0  0  0  0  0  0  0  0  0  0  0  0
   -1.4559    0.8406    0.0000 C   0  0  0  0  0  0  0  0  0  0  0  0
   -0.4853    0.8406    0.0000 C   0  0  0  0  0  0  0  0  0  0  0  0
    3.1128   -0.8163    0.0000 C   0  0  0  0  0  0  0  0  0  0  0  0
    4.0834   -0.8163    0.0000 C   0  0  0  0  0  0  0  0  0  0  0  0
    4.5687   -1.6569    0.0000 C   0  0  0  0  0  0  0  0  0  0  0  0
    4.0834   -2.4975    0.0000 C   0  0  0  0  0  0  0  0  0  0  0  0
    3.1128   -2.4975    0.0000 C   0  0  0  0  0  0  0  0  0  0  0  0
  1 30  2  0  0  0  0
  1  2  1  0  0  0  0
  1 26  1  0  0  0  0
  2 11  1  0  0  0  0
  2  3  2  0  0  0  0
  3  4  1  0  0  0  0
  4  5  1  1  0  0  0
  4 11  1  0  0  0  0
  5  6  2  0  0  0  0
  5  7  1  0  0  0  0
  7  8  1  0  0  0  0
  7  9  1  0  0  0  0
  9 10  1  0  0  0  0
 11 12  1  6  0  0  0
 12 13  2  0  0  0  0
 12 14  1  0  0  0  0
 12 20  1  0  0  0  0
 14 19  2  0  0  0  0
 14 15  1  0  0  0  0
 15 16  2  0  0  0  0
 16 17  1  0  0  0  0
 17 18  2  0  0  0  0
 18 19  1  0  0  0  0
 20 25  2  0  0  0  0
 20 21  1  0  0  0  0
 21 22  2  0  0  0  0
 22 23  1  0  0  0  0
 23 24  2  0  0  0  0
 24 25  1  0  0  0  0
 26 27  2  0  0  0  0
 27 28  1  0  0  0  0
 28 29  2  0  0  0  0
 29 30  1  0  0  0  0
M  END
> <NMREDATA_VERSION>
1.1

> <NMREDATA_LEVEL>
0

> <NMREDATA_SOLVENT>
CDCl3

> <NMREDATA_FORMULA>
C25H24NO3P

> <NMREDATA_SMILES>
CON(C(=O)[C@@H]1C=C([C@H]1P(=O)(c1ccccc1)c1ccccc1)c1ccccc1)C

> <NMREDATA_ASSIGNMENT>
P12, 27.90, 12

> <NMREDATA_1D_31P>
Larmor=202
27.90, L=P12

$$$$
