
 OpenBabel06112616432D

 39 43  0  0  1  0  0  0  0  0999 V2000
   -0.8463   -1.4659    0.0000 C   0  0  0  0  0  0  0  0  0  0  0  0
    0.0000   -0.9773    0.0000 C   0  0  0  0  0  0  0  0  0  0  0  0
    0.8463   -1.4659    0.0000 C   0  0  0  0  0  0  0  0  0  0  0  0
    1.6927   -0.9773    0.0000 C   0  0  0  0  0  0  0  0  0  0  0  0
    2.5390   -1.4659    0.0000 P   0  0  0  0  0  0  0  0  0  0  0  0
    3.3854   -0.9773    0.0000 C   0  0  0  0  0  0  0  0  0  0  0  0
    4.2317   -1.4659    0.0000 C   0  0  0  0  0  0  0  0  0  0  0  0
    5.0781   -0.9773    0.0000 C   0  0  0  0  0  0  0  0  0  0  0  0
    5.9244   -1.4659    0.0000 C   0  0  0  0  0  0  0  0  0  0  0  0
    5.0781    0.0000    0.0000 C   0  0  0  0  0  0  0  0  0  0  0  0
    5.9244    0.4886    0.0000 O   0  0  0  0  0  0  0  0  0  0  0  0
    6.7707    0.0000    0.0000 C   0  0  0  0  0  0  0  0  0  0  0  0
    4.2317    0.4886    0.0000 C   0  0  0  0  0  0  0  0  0  0  0  0
    4.2317    1.4659    0.0000 C   0  0  0  0  0  0  0  0  0  0  0  0
    3.3854    0.0000    0.0000 C   0  0  0  0  0  0  0  0  0  0  0  0
    2.5390   -3.4205    0.0000 C   0  0  0  0  0  0  0  0  0  0  0  0
    3.3854   -3.9091    0.0000 C   0  0  0  0  0  0  0  0  0  0  0  0
    3.3854   -4.8864    0.0000 C   0  0  0  0  0  0  0  0  0  0  0  0
    2.5390   -5.3750    0.0000 C   0  0  0  0  0  0  0  0  0  0  0  0
    1.6927   -4.8864    0.0000 C   0  0  0  0  0  0  0  0  0  0  0  0
    1.6927   -3.9091    0.0000 C   0  0  0  0  0  0  0  0  0  0  0  0
    0.8463   -3.4205    0.0000 C   0  0  0  0  0  0  0  0  0  0  0  0
   -0.0464   -3.8179    0.0000 N   0  0  0  0  0  0  0  0  0  0  0  0
   -0.7004   -3.0917    0.0000 C   0  0  2  0  0  0  0  0  0  0  0  0
   -1.6723   -3.1938    0.0000 C   0  0  0  0  0  0  0  0  0  0  0  0
   -2.2467   -2.4032    0.0000 C   0  0  0  0  0  0  0  0  0  0  0  0
   -3.2186   -2.5054    0.0000 C   0  0  0  0  0  0  0  0  0  0  0  0
   -3.7931   -1.7147    0.0000 C   0  0  0  0  0  0  0  0  0  0  0  0
   -3.3956   -0.8220    0.0000 C   0  0  0  0  0  0  0  0  0  0  0  0
   -2.4236   -0.7198    0.0000 C   0  0  0  0  0  0  0  0  0  0  0  0
   -1.8492   -1.5104    0.0000 C   0  0  0  0  0  0  0  0  0  0  0  0
   -0.2117   -2.2453    0.0000 C   0  0  0  0  0  0  0  0  0  0  0  0
    0.7442   -2.4485    0.0000 O   0  0  0  0  0  0  0  0  0  0  0  0
    1.6927    0.0000    0.0000 C   0  0  0  0  0  0  0  0  0  0  0  0
    0.8463    0.4886    0.0000 C   0  0  0  0  0  0  0  0  0  0  0  0
    0.8463    1.4659    0.0000 C   0  0  0  0  0  0  0  0  0  0  0  0
    0.0000    0.0000    0.0000 C   0  0  0  0  0  0  0  0  0  0  0  0
   -0.8463    0.4886    0.0000 O   0  0  0  0  0  0  0  0  0  0  0  0
   -1.6927    0.0000    0.0000 C   0  0  0  0  0  0  0  0  0  0  0  0
  1  2  1  0  0  0  0
  2 37  2  0  0  0  0
  2  3  1  0  0  0  0
  3  4  2  0  0  0  0
  4  5  1  0  0  0  0
  4 34  1  0  0  0  0
  5  6  1  0  0  0  0
  5 16  1  0  0  0  0
  6 15  2  0  0  0  0
  6  7  1  0  0  0  0
  7  8  2  0  0  0  0
  8  9  1  0  0  0  0
  8 10  1  0  0  0  0
 10 11  1  0  0  0  0
 10 13  2  0  0  0  0
 11 12  1  0  0  0  0
 13 14  1  0  0  0  0
 13 15  1  0  0  0  0
 16 21  2  0  0  0  0
 16 17  1  0  0  0  0
 17 18  2  0  0  0  0
 18 19  1  0  0  0  0
 19 20  2  0  0  0  0
 20 21  1  0  0  0  0
 21 22  1  0  0  0  0
 22 33  1  0  0  0  0
 22 23  2  0  0  0  0
 23 24  1  0  0  0  0
 24 25  1  6  0  0  0
 24 32  1  0  0  0  0
 25 26  1  0  0  0  0
 26 31  2  0  0  0  0
 26 27  1  0  0  0  0
 27 28  2  0  0  0  0
 28 29  1  0  0  0  0
 29 30  2  0  0  0  0
 30 31  1  0  0  0  0
 32 33  1  0  0  0  0
 34 35  2  0  0  0  0
 35 36  1  0  0  0  0
 35 37  1  0  0  0  0
 37 38  1  0  0  0  0
 38 39  1  0  0  0  0
M  END
> <NMREDATA_VERSION>
1.1

> <NMREDATA_LEVEL>
0

> <NMREDATA_SOLVENT>
CDCl3

> <NMREDATA_FORMULA>
C34H36NO3P

> <NMREDATA_SMILES>
COc1c(C)cc(cc1C)P(c1ccccc1C1=N[C@@H](CO1)Cc1ccccc1)c1cc(C)c(c(c1)C)OC

> <NMREDATA_ASSIGNMENT>
P5, -6.15, 5

> <NMREDATA_1D_31P>
Larmor=121
-6.15, L=P5

$$$$
