
 OpenBabel06112616472D

 25 26  0  0  0  0  0  0  0  0999 V2000
    0.1340   -2.5000    0.0000 C   0  0  0  0  0  0  0  0  0  0  0  0
    1.0000   -3.0000    0.0000 C   0  0  0  0  0  0  0  0  0  0  0  0
    1.8660   -2.5000    0.0000 O   0  0  0  0  0  0  0  0  0  0  0  0
    1.8660   -1.5000    0.0000 C   0  0  0  0  0  0  0  0  0  0  0  0
    2.7321   -1.0000    0.0000 C   0  0  0  0  0  0  0  0  0  0  0  0
    3.5981   -1.5000    0.0000 N   0  0  0  0  0  0  0  0  0  0  0  0
    3.7026   -2.4945    0.0000 C   0  0  0  0  0  0  0  0  0  0  0  0
    2.9595   -3.1637    0.0000 O   0  0  0  0  0  0  0  0  0  0  0  0
    4.6808   -2.7024    0.0000 C   0  0  0  0  0  0  0  0  0  0  0  0
    5.1808   -3.5685    0.0000 C   0  0  0  0  0  0  0  0  0  0  0  0
    6.1808   -3.5685    0.0000 C   0  0  0  0  0  0  0  0  0  0  0  0
    6.6808   -2.7024    0.0000 C   0  0  0  0  0  0  0  0  0  0  0  0
    6.1808   -1.8364    0.0000 C   0  0  0  0  0  0  0  0  0  0  0  0
    5.1808   -1.8364    0.0000 C   0  0  0  0  0  0  0  0  0  0  0  0
    4.5116   -1.0933    0.0000 C   0  0  0  0  0  0  0  0  0  0  0  0
    4.7195   -0.1151    0.0000 O   0  0  0  0  0  0  0  0  0  0  0  0
    1.0000   -1.0000    0.0000 C   0  0  0  0  0  0  0  0  0  0  0  0
    1.0000    0.0000    0.0000 P   0  0  0  0  0  0  0  0  0  0  0  0
    2.0000    0.0000    0.0000 O   0  0  0  0  0  0  0  0  0  0  0  0
    1.0000    1.0000    0.0000 O   0  0  0  0  0  0  0  0  0  0  0  0
    1.8660    1.5000    0.0000 C   0  0  0  0  0  0  0  0  0  0  0  0
    1.8660    2.5000    0.0000 C   0  0  0  0  0  0  0  0  0  0  0  0
    0.0000    0.0000    0.0000 O   0  0  0  0  0  0  0  0  0  0  0  0
   -0.5000    0.8660    0.0000 C   0  0  0  0  0  0  0  0  0  0  0  0
    0.0000    1.7321    0.0000 C   0  0  0  0  0  0  0  0  0  0  0  0
  1  2  1  0  0  0  0
  2  3  1  0  0  0  0
  3  4  1  0  0  0  0
  4  5  2  0  0  0  0
  4 17  1  0  0  0  0
  5  6  1  0  0  0  0
  6 15  1  0  0  0  0
  6  7  1  0  0  0  0
  7  8  2  0  0  0  0
  7  9  1  0  0  0  0
  9 14  2  0  0  0  0
  9 10  1  0  0  0  0
 10 11  2  0  0  0  0
 11 12  1  0  0  0  0
 12 13  2  0  0  0  0
 13 14  1  0  0  0  0
 14 15  1  0  0  0  0
 15 16  2  0  0  0  0
 17 18  1  0  0  0  0
 18 19  2  0  0  0  0
 18 20  1  0  0  0  0
 18 23  1  0  0  0  0
 20 21  1  0  0  0  0
 21 22  1  0  0  0  0
 23 24  1  0  0  0  0
 24 25  1  0  0  0  0
M  END
> <NMREDATA_VERSION>
1.1

> <NMREDATA_LEVEL>
0

> <NMREDATA_SOLVENT>
CDCl3

> <NMREDATA_FORMULA>
C17H22NO6P

> <NMREDATA_SMILES>
CCO/C(=C\N1C(=O)c2c(C1=O)cccc2)/CP(=O)(OCC)OCC

> <NMREDATA_ASSIGNMENT>
P18, 21.54, 18

> <NMREDATA_1D_31P>
Larmor=161
21.54, L=P18

$$$$
