
 OpenBabel06112616452D

 32 37  0  0  0  0  0  0  0  0999 V2000
    0.0008    3.8877    0.0000 C    0  0  0  0  0  0  0  0  0  0  0  0
    0.0008    2.8548    0.0000 C    0  0  0  0  0  0  0  0  0  0  0  0
    0.8186    2.3826    0.0000 C    0  0  0  0  0  0  0  0  0  0  0  0
    0.8186    1.4383    0.0000 C    0  0  0  0  0  0  0  0  0  0  0  0
    0.0008    0.9662    0.0000 C    0  0  0  0  0  0  0  0  0  0  0  0
   -0.8170    1.4383    0.0000 C    0  0  0  0  0  0  0  0  0  0  0  0
   -0.8170    2.3826    0.0000 C    0  0  0  0  0  0  0  0  0  0  0  0
   -1.6476    0.9665    0.0000 N    0  0  0  0  0  0  0  0  0  0  0  0
   -2.4784    0.4946    0.0000 C    0  0  0  0  0  0  0  0  0  0  0  0
   -3.3326    0.9923    0.0000 O    0  0  0  0  0  0  0  0  0  0  0  0
   -2.4792   -0.4715    0.0000 C    0  0  0  0  0  0  0  0  0  0  0  0
   -3.2970   -0.9437    0.0000 C    0  0  0  0  0  0  0  0  0  0  0  0
   -3.2970   -1.8880    0.0000 C    0  0  0  0  0  0  0  0  0  0  0  0
   -2.4792   -2.3602    0.0000 C    0  0  0  0  0  0  0  0  0  0  0  0
   -1.6614   -1.8880    0.0000 C    0  0  0  0  0  0  0  0  0  0  0  0
   -1.6614   -0.9437    0.0000 C    0  0  0  0  0  0  0  0  0  0  0  0
   -0.8306   -0.4718    0.0000 P    0  0  0  0  0  0  0  0  0  0  0  0
   -0.3588   -1.3024    0.0000 C    0  0  0  0  0  0  0  0  0  0  0  0
   -0.9257   -2.0712    0.0000 C    0  0  0  0  0  0  0  0  0  0  0  0
   -0.5433   -2.9465    0.0000 C    0  0  0  0  0  0  0  0  0  0  0  0
    0.4060   -3.0531    0.0000 C    0  0  0  0  0  0  0  0  0  0  0  0
    0.7883   -3.9284    0.0000 Cl   0  0  0  0  0  0  0  0  0  0  0  0
    0.9728   -2.2842    0.0000 C    0  0  0  0  0  0  0  0  0  0  0  0
    0.5905   -1.4089    0.0000 C    0  0  0  0  0  0  0  0  0  0  0  0
    1.0182    0.0097    0.0000 C    0  0  0  0  0  0  0  0  0  0  0  0
    1.4578    0.8577    0.0000 C    0  0  0  0  0  0  0  0  0  0  0  0
    2.4121    0.9010    0.0000 C    0  0  0  0  0  0  0  0  0  0  0  0
    2.9267    0.0963    0.0000 C    0  0  0  0  0  0  0  0  0  0  0  0
    3.8809    0.1395    0.0000 Cl   0  0  0  0  0  0  0  0  0  0  0  0
    2.4870   -0.7518    0.0000 C    0  0  0  0  0  0  0  0  0  0  0  0
    1.5328   -0.7951    0.0000 C    0  0  0  0  0  0  0  0  0  0  0  0
    0.0000    0.0000    0.0000 O    0  0  0  0  0  0  0  0  0  0  0  0
  1  2  1  0  0  0  0
  2  7  2  0  0  0  0
  2  3  1  0  0  0  0
  3  4  2  0  0  0  0
  4  5  1  0  0  0  0
  5 32  1  0  0  0  0
  5  6  2  0  0  0  0
  6  7  1  0  0  0  0
  6  8  1  0  0  0  0
  8 17  1  0  0  0  0
  8  9  1  0  0  0  0
  9 10  2  0  0  0  0
  9 11  1  0  0  0  0
 11 16  2  0  0  0  0
 11 12  1  0  0  0  0
 12 13  2  0  0  0  0
 13 14  1  0  0  0  0
 14 15  2  0  0  0  0
 15 16  1  0  0  0  0
 16 17  1  0  0  0  0
 17 18  1  0  0  0  0
 17 25  1  0  0  0  0
 17 32  1  0  0  0  0
 18 24  2  0  0  0  0
 18 19  1  0  0  0  0
 19 20  2  0  0  0  0
 20 21  1  0  0  0  0
 21 22  1  0  0  0  0
 21 23  2  0  0  0  0
 23 24  1  0  0  0  0
 25 31  2  0  0  0  0
 25 26  1  0  0  0  0
 26 27  2  0  0  0  0
 27 28  1  0  0  0  0
 28 29  1  0  0  0  0
 28 30  2  0  0  0  0
 30 31  1  0  0  0  0
M  END
> <NMREDATA_VERSION>
1.1

> <NMREDATA_LEVEL>
0

> <NMREDATA_SOLVENT>
CDCl3

> <NMREDATA_FORMULA>
C26H18Cl2NO2P

> <NMREDATA_SMILES>
Clc1ccc(cc1)P12(Oc3c(N2C(=O)c2c1cccc2)cc(cc3)C)c1ccc(cc1)Cl

> <NMREDATA_ASSIGNMENT>
P17, -50.20, 17

> <NMREDATA_1D_31P>
Larmor=162
-50.20, L=P17

$$$$
