
 OpenBabel06112616482D

 17 17  0  0  0  0  0  0  0  0999 V2000
    1.0000   -1.0000    0.0000 O    0  0  0  0  0  0  0  0  0  0  0  0
    1.0000    0.0000    0.0000 P    0  0  0  0  0  0  0  0  0  0  0  0
    2.0000    0.0000    0.0000 O    0  0  0  0  0  0  0  0  0  0  0  0
    2.5000    0.8660    0.0000 C    0  0  0  0  0  0  0  0  0  0  0  0
    3.5000    0.8660    0.0000 C    0  0  0  0  0  0  0  0  0  0  0  0
    1.0000    1.0000    0.0000 O    0  0  0  0  0  0  0  0  0  0  0  0
    0.1340    1.5000    0.0000 C    0  0  0  0  0  0  0  0  0  0  0  0
    0.1340    2.5000    0.0000 C    0  0  0  0  0  0  0  0  0  0  0  0
    0.0000    0.0000    0.0000 S    0  0  0  0  0  0  0  0  0  0  0  0
   -0.5000    0.8660    0.0000 C    0  0  0  0  0  0  0  0  0  0  0  0
   -1.5000    0.8660    0.0000 C    0  0  0  0  0  0  0  0  0  0  0  0
   -2.0000    0.0000    0.0000 C    0  0  0  0  0  0  0  0  0  0  0  0
   -3.0000    0.0000    0.0000 C    0  0  0  0  0  0  0  0  0  0  0  0
   -3.5000    0.8660    0.0000 C    0  0  0  0  0  0  0  0  0  0  0  0
   -4.5000    0.8660    0.0000 Cl   0  0  0  0  0  0  0  0  0  0  0  0
   -3.0000    1.7321    0.0000 C    0  0  0  0  0  0  0  0  0  0  0  0
   -2.0000    1.7321    0.0000 C    0  0  0  0  0  0  0  0  0  0  0  0
  1  2  2  0  0  0  0
  2  3  1  0  0  0  0
  2  6  1  0  0  0  0
  2  9  1  0  0  0  0
  3  4  1  0  0  0  0
  4  5  1  0  0  0  0
  6  7  1  0  0  0  0
  7  8  1  0  0  0  0
  9 10  1  0  0  0  0
 10 11  1  0  0  0  0
 11 17  2  0  0  0  0
 11 12  1  0  0  0  0
 12 13  2  0  0  0  0
 13 14  1  0  0  0  0
 14 15  1  0  0  0  0
 14 16  2  0  0  0  0
 16 17  1  0  0  0  0
M  END
> <NMREDATA_VERSION>
1.1

> <NMREDATA_LEVEL>
0

> <NMREDATA_SOLVENT>
CD2Cl2

> <NMREDATA_FORMULA>
C11H16ClO3PS

> <NMREDATA_SMILES>
CCOP(=O)(OCC)SCc1ccc(cc1)Cl

> <NMREDATA_ASSIGNMENT>
P2, 26.90, 2

> <NMREDATA_1D_31P>
Larmor=121
26.90, L=P2

$$$$
