
 OpenBabel06112616452D

 17 17  0  0  0  0  0  0  0  0999 V2000
   -1.0000   -1.0000    0.0000 C    0  0  0  0  0  0  0  0  0  0  0  0
    0.0000   -1.0000    0.0000 Si   0  0  0  0  0  0  0  0  0  0  0  0
    0.0000   -2.0000    0.0000 C    0  0  0  0  0  0  0  0  0  0  0  0
    1.0000   -1.0000    0.0000 C    0  0  0  0  0  0  0  0  0  0  0  0
    0.0000    0.0000    0.0000 C    0  0  0  0  0  0  0  0  0  0  0  0
    0.8660    0.5000    0.0000 C    0  0  0  0  0  0  0  0  0  0  0  0
    0.8660    1.5000    0.0000 C    0  0  0  0  0  0  0  0  0  0  0  0
    1.7321    2.0000    0.0000 P    0  0  0  0  0  0  0  0  0  0  0  0
    1.4143    2.9482    0.0000 O    0  0  0  0  0  0  0  0  0  0  0  0
    2.5092    2.6293    0.0000 O    0  0  0  0  0  0  0  0  0  0  0  0
    3.3479    2.0847    0.0000 C    0  0  0  0  0  0  0  0  0  0  0  0
    4.3356    1.9282    0.0000 C    0  0  0  0  0  0  0  0  0  0  0  0
    3.9772    2.8618    0.0000 C    0  0  0  0  0  0  0  0  0  0  0  0
    3.0890    1.1188    0.0000 C    0  0  0  0  0  0  0  0  0  0  0  0
    3.2455    0.1311    0.0000 C    0  0  0  0  0  0  0  0  0  0  0  0
    4.0226    0.7604    0.0000 C    0  0  0  0  0  0  0  0  0  0  0  0
    2.0904    1.0664    0.0000 O    0  0  0  0  0  0  0  0  0  0  0  0
  1  2  1  0  0  0  0
  2  3  1  0  0  0  0
  2  4  1  0  0  0  0
  2  5  1  0  0  0  0
  5  6  1  0  0  0  0
  6  7  1  0  0  0  0
  7  8  1  0  0  0  0
  8 17  1  0  0  0  0
  8  9  2  0  0  0  0
  8 10  1  0  0  0  0
 10 11  1  0  0  0  0
 11 12  1  0  0  0  0
 11 13  1  0  0  0  0
 11 14  1  0  0  0  0
 14 15  1  0  0  0  0
 14 16  1  0  0  0  0
 14 17  1  0  0  0  0
M  END
> <NMREDATA_VERSION>
1.1

> <NMREDATA_LEVEL>
0

> <NMREDATA_SOLVENT>
CDCl3

> <NMREDATA_FORMULA>
C12H27O3PSi

> <NMREDATA_SMILES>
C[Si](CCCP1(=O)OC(C(O1)(C)C)(C)C)(C)C

> <NMREDATA_ASSIGNMENT>
P8, 43.80, 8

> <NMREDATA_1D_31P>
Larmor=162
43.80, L=P8

$$$$
