
 OpenBabel06112616452D

 18 18  0  0  1  0  0  0  0  0999 V2000
    3.6160   -3.3554    0.0000 C   0  0  0  0  0  0  0  0  0  0  0  0
    3.7205   -4.3500    0.0000 O   0  0  0  0  0  0  0  0  0  0  0  0
    2.9115   -4.9377    0.0000 C   0  0  0  0  0  0  0  0  0  0  0  0
    2.7024   -2.9487    0.0000 C   0  0  0  0  0  0  0  0  0  0  0  0
    1.8364   -3.4487    0.0000 C   0  0  0  0  0  0  0  0  0  0  0  0
    1.0933   -2.7796    0.0000 C   0  0  0  0  0  0  0  0  0  0  0  0
    1.5000   -1.8660    0.0000 C   0  0  0  0  0  0  0  0  0  0  0  0
    1.0000   -1.0000    0.0000 C   0  0  3  0  0  0  0  0  0  0  0  0
    1.5000   -0.1340    0.0000 O   0  0  0  0  0  0  0  0  0  0  0  0
    0.0000   -1.0000    0.0000 P   0  0  0  0  0  0  0  0  0  0  0  0
    0.0000   -2.0000    0.0000 O   0  0  0  0  0  0  0  0  0  0  0  0
   -1.0000   -1.0000    0.0000 O   0  0  0  0  0  0  0  0  0  0  0  0
   -1.5000   -1.8660    0.0000 C   0  0  0  0  0  0  0  0  0  0  0  0
   -1.0000   -2.7321    0.0000 C   0  0  0  0  0  0  0  0  0  0  0  0
    0.0000    0.0000    0.0000 O   0  0  0  0  0  0  0  0  0  0  0  0
   -0.8660    0.5000    0.0000 C   0  0  0  0  0  0  0  0  0  0  0  0
   -1.7321    0.0000    0.0000 C   0  0  0  0  0  0  0  0  0  0  0  0
    2.4945   -1.9706    0.0000 O   0  0  0  0  0  0  0  0  0  0  0  0
  1  2  1  0  0  0  0
  1  4  1  0  0  0  0
  2  3  1  0  0  0  0
  4 18  1  0  0  0  0
  4  5  2  0  0  0  0
  5  6  1  0  0  0  0
  6  7  2  0  0  0  0
  7  8  1  0  0  0  0
  7 18  1  0  0  0  0
  8  9  1  0  0  0  0
  8 10  1  0  0  0  0
 10 11  2  0  0  0  0
 10 12  1  0  0  0  0
 10 15  1  0  0  0  0
 12 13  1  0  0  0  0
 13 14  1  0  0  0  0
 15 16  1  0  0  0  0
 16 17  1  0  0  0  0
M  END
> <NMREDATA_VERSION>
1.1

> <NMREDATA_LEVEL>
0

> <NMREDATA_FORMULA>
C11H19O6P

> <NMREDATA_SMILES>
COCc1ccc(o1)C(P(=O)(OCC)OCC)O

> <NMREDATA_ASSIGNMENT>
P10, 19.84, 10

> <NMREDATA_1D_31P>
Larmor=162
19.84, L=P10

$$$$
