
 OpenBabel06112616472D

 40 46  0  0  0  0  0  0  0  0999 V2000
    2.5542    2.2538    0.0000 C   0  0  0  0  0  0  0  0  0  0  0  0
    1.9352    1.5666    0.0000 O   0  0  0  0  0  0  0  0  0  0  0  0
    2.2209    0.6870    0.0000 C   0  0  0  0  0  0  0  0  0  0  0  0
    3.1255    0.4945    0.0000 C   0  0  0  0  0  0  0  0  0  0  0  0
    3.4111   -0.3851    0.0000 C   0  0  0  0  0  0  0  0  0  0  0  0
    2.7922   -1.0723    0.0000 C   0  0  0  0  0  0  0  0  0  0  0  0
    1.8875   -0.8799    0.0000 C   0  0  0  0  0  0  0  0  0  0  0  0
    1.2686   -1.5671    0.0000 O   0  0  0  0  0  0  0  0  0  0  0  0
    1.5542   -2.4467    0.0000 C   0  0  0  0  0  0  0  0  0  0  0  0
    1.6019   -0.0002    0.0000 C   0  0  0  0  0  0  0  0  0  0  0  0
    0.8010    0.4623    0.0000 C   0  0  0  0  0  0  0  0  0  0  0  0
    0.8012    1.3878    0.0000 C   0  0  0  0  0  0  0  0  0  0  0  0
    0.0004    1.8504    0.0000 C   0  0  0  0  0  0  0  0  0  0  0  0
   -0.8011    1.3881    0.0000 C   0  0  0  0  0  0  0  0  0  0  0  0
   -2.4035    1.3884    0.0000 C   0  0  0  0  0  0  0  0  0  0  0  0
   -3.2048    1.8510    0.0000 C   0  0  0  0  0  0  0  0  0  0  0  0
   -4.0058    1.3887    0.0000 C   0  0  0  0  0  0  0  0  0  0  0  0
   -4.0060    0.4633    0.0000 C   0  0  0  0  0  0  0  0  0  0  0  0
   -3.2051    0.0006    0.0000 C   0  0  0  0  0  0  0  0  0  0  0  0
   -2.4036    0.4630    0.0000 C   0  0  0  0  0  0  0  0  0  0  0  0
   -1.6028    0.0003    0.0000 N   0  0  0  0  0  0  0  0  0  0  0  0
   -1.6031   -0.9245    0.0000 C   0  0  0  0  0  0  0  0  0  0  0  0
   -0.7583   -1.3010    0.0000 C   0  0  0  0  0  0  0  0  0  0  0  0
   -0.6620   -2.2208    0.0000 C   0  0  0  0  0  0  0  0  0  0  0  0
   -1.4104   -2.7642    0.0000 C   0  0  0  0  0  0  0  0  0  0  0  0
   -2.2551   -2.3877    0.0000 C   0  0  0  0  0  0  0  0  0  0  0  0
   -2.3515   -1.4679    0.0000 C   0  0  0  0  0  0  0  0  0  0  0  0
   -5.7306    0.0379    0.0000 P   0  0  0  0  0  0  0  0  0  0  0  0
   -5.8270    0.9577    0.0000 C   0  0  0  0  0  0  0  0  0  0  0  0
   -6.6278    1.4204    0.0000 C   0  0  0  0  0  0  0  0  0  0  0  0
   -6.4352    2.3250    0.0000 C   0  0  0  0  0  0  0  0  0  0  0  0
   -5.5154    2.4214    0.0000 C   0  0  0  0  0  0  0  0  0  0  0  0
   -5.1395    1.5763    0.0000 C   0  0  0  0  0  0  0  0  0  0  0  0
   -6.4790   -0.5055    0.0000 C   0  0  0  0  0  0  0  0  0  0  0  0
   -6.4793   -1.4303    0.0000 C   0  0  0  0  0  0  0  0  0  0  0  0
   -7.3590   -1.7158    0.0000 C   0  0  0  0  0  0  0  0  0  0  0  0
   -7.9024   -0.9674    0.0000 C   0  0  0  0  0  0  0  0  0  0  0  0
   -7.3585   -0.2194    0.0000 C   0  0  0  0  0  0  0  0  0  0  0  0
   -0.8013    0.4626    0.0000 C   0  0  0  0  0  0  0  0  0  0  0  0
    0.0000    0.0000    0.0000 C   0  0  0  0  0  0  0  0  0  0  0  0
  1  2  1  0  0  0  0
  2  3  1  0  0  0  0
  3 10  2  0  0  0  0
  3  4  1  0  0  0  0
  4  5  2  0  0  0  0
  5  6  1  0  0  0  0
  6  7  2  0  0  0  0
  7  8  1  0  0  0  0
  7 10  1  0  0  0  0
  8  9  1  0  0  0  0
 10 11  1  0  0  0  0
 11 40  2  0  0  0  0
 11 12  1  0  0  0  0
 12 13  2  0  0  0  0
 13 14  1  0  0  0  0
 14 39  2  0  0  0  0
 14 15  1  0  0  0  0
 15 20  2  0  0  0  0
 15 16  1  0  0  0  0
 16 17  2  0  0  0  0
 17 18  1  0  0  0  0
 18 19  2  0  0  0  0
 19 20  1  0  0  0  0
 20 21  1  0  0  0  0
 21 22  1  0  0  0  0
 21 39  1  0  0  0  0
 22 27  2  0  0  0  0
 22 23  1  0  0  0  0
 23 24  2  0  0  0  0
 24 25  1  0  0  0  0
 25 26  2  0  0  0  0
 26 27  1  0  0  0  0
 27 28  1  0  0  0  0
 28 29  1  0  0  0  0
 28 34  1  0  0  0  0
 29 33  1  0  0  0  0
 29 30  1  0  0  0  0
 30 31  1  0  0  0  0
 31 32  1  0  0  0  0
 32 33  1  0  0  0  0
 34 38  1  0  0  0  0
 34 35  1  0  0  0  0
 35 36  1  0  0  0  0
 36 37  1  0  0  0  0
 37 38  1  0  0  0  0
 39 40  1  0  0  0  0
M  END
> <NMREDATA_VERSION>
1.1

> <NMREDATA_LEVEL>
0

> <NMREDATA_SOLVENT>
CD3COCD3

> <NMREDATA_FORMULA>
C36H38NO2P

> <NMREDATA_SMILES>
COc1cccc(c1c1ccc2c(c1)n(c1ccccc1P(C1CCCC1)C1CCCC1)c1c2cccc1)OC

> <NMREDATA_ASSIGNMENT>
P28, -17.29, 28

> <NMREDATA_1D_31P>
Larmor=202
-17.29, L=P28

$$$$
