
 OpenBabel06112616432D

 38 42  0  0  0  0  0  0  0  0999 V2000
    1.6221   -4.5538    0.0000 C   0  0  0  0  0  0  0  0  0  0  0  0
    0.9685   -3.8279    0.0000 O   0  0  0  0  0  0  0  0  0  0  0  0
    1.3203   -5.4827    0.0000 O   0  0  0  0  0  0  0  0  0  0  0  0
    0.3649   -5.6858    0.0000 C   0  0  0  0  0  0  0  0  0  0  0  0
    2.5775   -4.3507    0.0000 C   0  0  0  0  0  0  0  0  0  0  0  0
    3.2311   -5.0765    0.0000 C   0  0  0  0  0  0  0  0  0  0  0  0
    4.1865   -4.8735    0.0000 C   0  0  0  0  0  0  0  0  0  0  0  0
    4.4883   -3.9445    0.0000 C   0  0  0  0  0  0  0  0  0  0  0  0
    3.8347   -3.2187    0.0000 C   0  0  0  0  0  0  0  0  0  0  0  0
    2.8793   -3.4217    0.0000 C   0  0  0  0  0  0  0  0  0  0  0  0
    2.2258   -2.6959    0.0000 N   0  0  0  0  0  0  0  0  0  0  0  0
    2.5276   -1.7669    0.0000 C   0  0  0  0  0  0  0  0  0  0  0  0
    1.9535   -0.9767    0.0000 C   0  0  0  0  0  0  0  0  0  0  0  0
    0.0000   -0.9767    0.0000 P   0  0  0  0  0  0  0  0  0  0  0  0
    0.0000   -1.9535    0.0000 O   0  0  0  0  0  0  0  0  0  0  0  0
   -0.9767   -0.9767    0.0000 C   0  0  0  0  0  0  0  0  0  0  0  0
   -1.4651   -0.1309    0.0000 C   0  0  0  0  0  0  0  0  0  0  0  0
   -2.4419   -0.1309    0.0000 C   0  0  0  0  0  0  0  0  0  0  0  0
   -2.9302   -0.9767    0.0000 C   0  0  0  0  0  0  0  0  0  0  0  0
   -2.4419   -1.8226    0.0000 C   0  0  0  0  0  0  0  0  0  0  0  0
   -1.4651   -1.8226    0.0000 C   0  0  0  0  0  0  0  0  0  0  0  0
    0.0000    0.0000    0.0000 C   0  0  0  0  0  0  0  0  0  0  0  0
    0.8459    0.4884    0.0000 C   0  0  0  0  0  0  0  0  0  0  0  0
    0.8459    1.4651    0.0000 C   0  0  0  0  0  0  0  0  0  0  0  0
    0.0000    1.9535    0.0000 C   0  0  0  0  0  0  0  0  0  0  0  0
   -0.8459    1.4651    0.0000 C   0  0  0  0  0  0  0  0  0  0  0  0
   -0.8459    0.4884    0.0000 C   0  0  0  0  0  0  0  0  0  0  0  0
    2.5276   -0.1865    0.0000 C   0  0  0  0  0  0  0  0  0  0  0  0
    2.2258    0.7424    0.0000 O   0  0  0  0  0  0  0  0  0  0  0  0
    3.4565   -0.4884    0.0000 N   0  0  0  0  0  0  0  0  0  0  0  0
    4.2467    0.0857    0.0000 C   0  0  0  0  0  0  0  0  0  0  0  0
    4.1446    1.0571    0.0000 C   0  0  0  0  0  0  0  0  0  0  0  0
    4.9349    1.6313    0.0000 C   0  0  0  0  0  0  0  0  0  0  0  0
    5.8272    1.2340    0.0000 C   0  0  0  0  0  0  0  0  0  0  0  0
    5.9292    0.2626    0.0000 C   0  0  0  0  0  0  0  0  0  0  0  0
    5.1390   -0.3115    0.0000 C   0  0  0  0  0  0  0  0  0  0  0  0
    3.4565   -1.4651    0.0000 C   0  0  0  0  0  0  0  0  0  0  0  0
    4.2467   -2.0392    0.0000 O   0  0  0  0  0  0  0  0  0  0  0  0
  1  2  2  0  0  0  0
  1  3  1  0  0  0  0
  1  5  1  0  0  0  0
  3  4  1  0  0  0  0
  5 10  2  0  0  0  0
  5  6  1  0  0  0  0
  6  7  2  0  0  0  0
  7  8  1  0  0  0  0
  8  9  2  0  0  0  0
  9 10  1  0  0  0  0
 10 11  1  0  0  0  0
 11 12  1  0  0  0  0
 12 37  1  0  0  0  0
 12 13  2  0  0  0  0
 13 14  1  0  0  0  0
 13 28  1  0  0  0  0
 14 15  2  0  0  0  0
 14 16  1  0  0  0  0
 14 22  1  0  0  0  0
 16 21  2  0  0  0  0
 16 17  1  0  0  0  0
 17 18  2  0  0  0  0
 18 19  1  0  0  0  0
 19 20  2  0  0  0  0
 20 21  1  0  0  0  0
 22 27  2  0  0  0  0
 22 23  1  0  0  0  0
 23 24  2  0  0  0  0
 24 25  1  0  0  0  0
 25 26  2  0  0  0  0
 26 27  1  0  0  0  0
 28 29  2  0  0  0  0
 28 30  1  0  0  0  0
 30 31  1  0  0  0  0
 30 37  1  0  0  0  0
 31 36  2  0  0  0  0
 31 32  1  0  0  0  0
 32 33  2  0  0  0  0
 33 34  1  0  0  0  0
 34 35  2  0  0  0  0
 35 36  1  0  0  0  0
 37 38  2  0  0  0  0
M  END
> <NMREDATA_VERSION>
1.1

> <NMREDATA_LEVEL>
0

> <NMREDATA_SOLVENT>
CDCl3

> <NMREDATA_FORMULA>
C30H23N2O5P

> <NMREDATA_SMILES>
COC(=O)c1ccccc1NC1=C(C(=O)N(C1=O)c1ccccc1)P(=O)(c1ccccc1)c1ccccc1

> <NMREDATA_ASSIGNMENT>
P14, 27.42, 14

> <NMREDATA_1D_31P>
Larmor=162
27.42, L=P14

$$$$
