
 OpenBabel06112616472D

 43 48  0  0  1  0  0  0  0  0999 V2000
   -4.8000   -0.9600    0.0000 C   0  0  0  0  0  0  0  0  0  0  0  0
   -3.8400   -0.9600    0.0000 C   0  0  0  0  0  0  0  0  0  0  0  0
   -3.3600   -0.1286    0.0000 C   0  0  0  0  0  0  0  0  0  0  0  0
   -2.4000   -0.1286    0.0000 C   0  0  0  0  0  0  0  0  0  0  0  0
   -1.9200   -0.9600    0.0000 C   0  0  0  0  0  0  0  0  0  0  0  0
    0.0000   -0.9600    0.0000 S   0  0  0  0  0  0  0  0  0  0  0  0
    0.0000   -1.9200    0.0000 O   0  0  0  0  0  0  0  0  0  0  0  0
    0.9600   -0.9600    0.0000 O   0  0  0  0  0  0  0  0  0  0  0  0
    0.0000    0.0000    0.0000 N   0  0  0  0  0  0  0  0  0  0  0  0
    0.7767    0.5643    0.0000 C   0  0  1  0  0  0  0  0  0  0  0  0
    1.6897    0.2676    0.0000 C   0  0  0  0  0  0  0  0  0  0  0  0
    1.8893   -0.6714    0.0000 C   0  0  0  0  0  0  0  0  0  0  0  0
    2.8023   -0.9681    0.0000 C   0  0  0  0  0  0  0  0  0  0  0  0
    3.5157   -0.3257    0.0000 C   0  0  0  0  0  0  0  0  0  0  0  0
    4.4287   -0.6224    0.0000 C   0  0  0  0  0  0  0  0  0  0  0  0
    3.3161    0.6133    0.0000 C   0  0  0  0  0  0  0  0  0  0  0  0
    2.4031    0.9100    0.0000 C   0  0  0  0  0  0  0  0  0  0  0  0
    0.4800    1.4773    0.0000 C   0  0  2  0  0  0  0  0  0  0  0  0
    0.5803    2.4320    0.0000 P   0  0  0  0  0  0  0  0  0  0  0  0
   -0.3744    2.5324    0.0000 C   0  0  0  0  0  0  0  0  0  0  0  0
   -0.7649    3.4094    0.0000 C   0  0  0  0  0  0  0  0  0  0  0  0
   -1.7196    3.5097    0.0000 C   0  0  0  0  0  0  0  0  0  0  0  0
   -2.2839    2.7331    0.0000 C   0  0  0  0  0  0  0  0  0  0  0  0
   -1.8934    1.8561    0.0000 C   0  0  0  0  0  0  0  0  0  0  0  0
   -0.9387    1.7557    0.0000 C   0  0  0  0  0  0  0  0  0  0  0  0
    0.6807    3.3868    0.0000 C   0  0  0  0  0  0  0  0  0  0  0  0
    1.5577    3.7772    0.0000 C   0  0  0  0  0  0  0  0  0  0  0  0
    1.6580    4.7320    0.0000 C   0  0  0  0  0  0  0  0  0  0  0  0
    0.8814    5.2963    0.0000 C   0  0  0  0  0  0  0  0  0  0  0  0
    0.0044    4.9058    0.0000 C   0  0  0  0  0  0  0  0  0  0  0  0
   -0.0960    3.9510    0.0000 C   0  0  0  0  0  0  0  0  0  0  0  0
    1.5351    2.3317    0.0000 O   0  0  0  0  0  0  0  0  0  0  0  0
    2.2340    2.2582    0.0000 C   0  0  0  0  0  0  0  0  0  0  0  0
    3.0107    1.6939    0.0000 C   0  0  0  0  0  0  0  0  0  0  0  0
    3.8877    2.0844    0.0000 C   0  0  0  0  0  0  0  0  0  0  0  0
    3.9880    3.0392    0.0000 C   0  0  0  0  0  0  0  0  0  0  0  0
    3.2114    3.6034    0.0000 C   0  0  0  0  0  0  0  0  0  0  0  0
    2.3344    3.2130    0.0000 C   0  0  0  0  0  0  0  0  0  0  0  0
   -0.4800    1.4773    0.0000 N   0  0  0  0  0  0  0  0  0  0  0  0
   -0.7767    0.5643    0.0000 C   0  0  0  0  0  0  0  0  0  0  0  0
   -1.6897    0.2676    0.0000 S   0  0  0  0  0  0  0  0  0  0  0  0
   -2.4000   -1.7914    0.0000 C   0  0  0  0  0  0  0  0  0  0  0  0
   -3.3600   -1.7914    0.0000 C   0  0  0  0  0  0  0  0  0  0  0  0
  1  2  1  0  0  0  0
  2 43  2  0  0  0  0
  2  3  1  0  0  0  0
  3  4  2  0  0  0  0
  4  5  1  0  0  0  0
  5  6  1  0  0  0  0
  5 42  2  0  0  0  0
  6  7  2  0  0  0  0
  6  8  2  0  0  0  0
  6  9  1  0  0  0  0
  9 40  1  0  0  0  0
  9 10  1  0  0  0  0
 10 11  1  6  0  0  0
 10 18  1  0  0  0  0
 11 17  2  0  0  0  0
 11 12  1  0  0  0  0
 12 13  2  0  0  0  0
 13 14  1  0  0  0  0
 14 15  1  0  0  0  0
 14 16  2  0  0  0  0
 16 17  1  0  0  0  0
 18 19  1  6  0  0  0
 18 33  1  0  0  0  0
 18 39  1  0  0  0  0
 19 20  1  0  0  0  0
 19 26  1  0  0  0  0
 19 32  2  0  0  0  0
 20 25  2  0  0  0  0
 20 21  1  0  0  0  0
 21 22  2  0  0  0  0
 22 23  1  0  0  0  0
 23 24  2  0  0  0  0
 24 25  1  0  0  0  0
 26 31  2  0  0  0  0
 26 27  1  0  0  0  0
 27 28  2  0  0  0  0
 28 29  1  0  0  0  0
 29 30  2  0  0  0  0
 30 31  1  0  0  0  0
 33 38  2  0  0  0  0
 33 34  1  0  0  0  0
 34 35  2  0  0  0  0
 35 36  1  0  0  0  0
 36 37  2  0  0  0  0
 37 38  1  0  0  0  0
 39 40  1  0  0  0  0
 40 41  2  0  0  0  0
 42 43  1  0  0  0  0
M  END
> <NMREDATA_VERSION>
1.1

> <NMREDATA_LEVEL>
0

> <NMREDATA_SOLVENT>
CDCl3

> <NMREDATA_FORMULA>
C35H31N2O3PS2

> <NMREDATA_SMILES>
Cc1ccc(cc1)[C@@H]1N(C(=S)N[C@]1(c1ccccc1)P(=O)(c1ccccc1)c1ccccc1)S(=O)(=O)c1ccc(cc1)C

> <NMREDATA_ASSIGNMENT>
P19, 11.10, 19

> <NMREDATA_1D_31P>
Larmor=121
11.10, L=P19

$$$$
