
 OpenBabel06112616462D

 23 26  0  0  1  0  0  0  0  0999 V2000
   -0.8385    1.5029    0.0000 C   0  0  0  0  0  0  0  0  0  0  0  0
   -0.8354    0.4823    0.0000 C   0  0  0  0  0  0  0  0  0  0  0  0
   -1.6773   -0.0107    0.0000 C   0  0  0  0  0  0  0  0  0  0  0  0
   -2.5645    0.4937    0.0000 C   0  0  0  0  0  0  0  0  0  0  0  0
   -1.6706   -0.9643    0.0000 C   0  0  0  0  0  0  0  0  0  0  0  0
   -0.8352   -1.4466    0.0000 P   0  0  3  0  0  0  0  0  0  0  0  0
   -1.3455   -2.3305    0.0000 S   0  0  0  0  0  0  0  0  0  0  0  0
    0.0004   -1.9291    0.0000 C   0  0  0  0  0  0  0  0  0  0  0  0
    0.0065   -2.9047    0.0000 C   0  0  0  0  0  0  0  0  0  0  0  0
    0.8544   -3.3873    0.0000 C   0  0  0  0  0  0  0  0  0  0  0  0
    0.8608   -4.4304    0.0000 C   0  0  0  0  0  0  0  0  0  0  0  0
    1.6963   -2.8943    0.0000 C   0  0  0  0  0  0  0  0  0  0  0  0
    1.6903   -1.9186    0.0000 C   0  0  0  0  0  0  0  0  0  0  0  0
    0.8423   -1.4360    0.0000 C   0  0  0  0  0  0  0  0  0  0  0  0
    0.8356   -0.4825    0.0000 C   0  0  0  0  0  0  0  0  0  0  0  0
    1.6598   -0.0028    0.0000 C   0  0  0  0  0  0  0  0  0  0  0  0
    2.5323   -0.3875    0.0000 C   0  0  0  0  0  0  0  0  0  0  0  0
    3.3018    0.1757    0.0000 C   0  0  0  0  0  0  0  0  0  0  0  0
    4.1743   -0.2091    0.0000 C   0  0  0  0  0  0  0  0  0  0  0  0
    4.2773   -1.1571    0.0000 C   0  0  0  0  0  0  0  0  0  0  0  0
    3.5078   -1.7204    0.0000 C   0  0  0  0  0  0  0  0  0  0  0  0
    2.6353   -1.3356    0.0000 C   0  0  0  0  0  0  0  0  0  0  0  0
    0.0000    0.0000    0.0000 C   0  0  3  0  0  0  0  0  0  0  0  0
  1  2  2  0  0  0  0
  2 23  1  0  0  0  0
  2  3  1  0  0  0  0
  3  4  1  0  0  0  0
  3  5  2  0  0  0  0
  5  6  1  0  0  0  0
  6 23  1  0  0  0  0
  6  7  2  0  0  0  0
  6  8  1  0  0  0  0
  8 14  2  0  0  0  0
  8  9  1  0  0  0  0
  9 10  2  0  0  0  0
 10 11  1  0  0  0  0
 10 12  1  0  0  0  0
 12 13  2  0  0  0  0
 13 14  1  0  0  0  0
 14 15  1  0  0  0  0
 15 16  2  0  0  0  0
 15 23  1  0  0  0  0
 16 17  1  0  0  0  0
 17 22  2  0  0  0  0
 17 18  1  0  0  0  0
 18 19  2  0  0  0  0
 19 20  1  0  0  0  0
 20 21  2  0  0  0  0
 21 22  1  0  0  0  0
M  END
> <NMREDATA_VERSION>
1.1

> <NMREDATA_LEVEL>
0

> <NMREDATA_SOLVENT>
CDCl3

> <NMREDATA_FORMULA>
C21H19PS

> <NMREDATA_SMILES>
Cc1ccc2c(c1)P1(=S)C=C(C(=C)C1/C/2=C/c1ccccc1)C

> <NMREDATA_ASSIGNMENT>
P6, 62.40, 6

> <NMREDATA_1D_31P>
Larmor=121MHz
62.40, L=P6

$$$$
