
 OpenBabel06112616462D

 31 33  0  0  0  0  0  0  0  0999 V2000
    5.3333   -2.1743    0.0000 C    0  0  0  0  0  0  0  0  0  0  0  0
    4.8500   -1.3372    0.0000 C    0  0  0  0  0  0  0  0  0  0  0  0
    5.3333   -0.5000    0.0000 C    0  0  0  0  0  0  0  0  0  0  0  0
    6.3000   -0.5000    0.0000 C    0  0  0  0  0  0  0  0  0  0  0  0
    6.7833   -1.3372    0.0000 C    0  0  0  0  0  0  0  0  0  0  0  0
    6.3000   -2.1743    0.0000 C    0  0  0  0  0  0  0  0  0  0  0  0
    4.3667   -3.8486    0.0000 Te   0  0  0  0  0  0  0  0  0  0  0  0
    3.4000   -3.8486    0.0000 P    0  3  0  0  0  0  0  0  0  0  0  0
    3.4000   -4.8153    0.0000 C    0  0  0  0  0  0  0  0  0  0  0  0
    2.5628   -5.2986    0.0000 C    0  0  0  0  0  0  0  0  0  0  0  0
    2.5628   -6.2653    0.0000 C    0  0  0  0  0  0  0  0  0  0  0  0
    3.4000   -6.7486    0.0000 C    0  0  0  0  0  0  0  0  0  0  0  0
    4.2372   -6.2653    0.0000 C    0  0  0  0  0  0  0  0  0  0  0  0
    4.2372   -5.2986    0.0000 C    0  0  0  0  0  0  0  0  0  0  0  0
    2.4333   -3.8486    0.0000 C    0  0  0  0  0  0  0  0  0  0  0  0
    1.9500   -3.0115    0.0000 C    0  0  0  0  0  0  0  0  0  0  0  0
    0.9833   -3.0115    0.0000 C    0  0  0  0  0  0  0  0  0  0  0  0
    0.5000   -3.8486    0.0000 C    0  0  0  0  0  0  0  0  0  0  0  0
    0.9833   -4.6858    0.0000 C    0  0  0  0  0  0  0  0  0  0  0  0
    1.9500   -4.6858    0.0000 C    0  0  0  0  0  0  0  0  0  0  0  0
    3.4000   -2.8820    0.0000 C    0  0  0  0  0  0  0  0  0  0  0  0
    4.2372   -2.3986    0.0000 C    0  0  0  0  0  0  0  0  0  0  0  0
    4.2372   -1.4320    0.0000 C    0  0  0  0  0  0  0  0  0  0  0  0
    3.4000   -0.9486    0.0000 C    0  0  0  0  0  0  0  0  0  0  0  0
    2.5628   -1.4320    0.0000 C    0  0  0  0  0  0  0  0  0  0  0  0
    2.5628   -2.3986    0.0000 C    0  0  0  0  0  0  0  0  0  0  0  0
    8.7833   -1.5000    0.0000 B    0  5  0  0  0  0  0  0  0  0  0  0
    7.7833   -1.5000    0.0000 F    0  0  0  0  0  0  0  0  0  0  0  0
    8.7833   -2.5000    0.0000 F    0  0  0  0  0  0  0  0  0  0  0  0
    9.7833   -1.5000    0.0000 F    0  0  0  0  0  0  0  0  0  0  0  0
    8.7833   -0.5000    0.0000 F    0  0  0  0  0  0  0  0  0  0  0  0
  1  6  2  0  0  0  0
  1  2  1  0  0  0  0
  1  7  1  0  0  0  0
  2  3  2  0  0  0  0
  3  4  1  0  0  0  0
  4  5  2  0  0  0  0
  5  6  1  0  0  0  0
  7  8  1  0  0  0  0
  8  9  1  0  0  0  0
  8 15  1  0  0  0  0
  8 21  1  0  0  0  0
  9 14  2  0  0  0  0
  9 10  1  0  0  0  0
 10 11  2  0  0  0  0
 11 12  1  0  0  0  0
 12 13  2  0  0  0  0
 13 14  1  0  0  0  0
 15 20  2  0  0  0  0
 15 16  1  0  0  0  0
 16 17  2  0  0  0  0
 17 18  1  0  0  0  0
 18 19  2  0  0  0  0
 19 20  1  0  0  0  0
 21 26  2  0  0  0  0
 21 22  1  0  0  0  0
 22 23  2  0  0  0  0
 23 24  1  0  0  0  0
 24 25  2  0  0  0  0
 25 26  1  0  0  0  0
 27 28  1  0  0  0  0
 27 29  1  0  0  0  0
 27 30  1  0  0  0  0
 27 31  1  0  0  0  0
M  END
> <NMREDATA_VERSION>
1.1

> <NMREDATA_LEVEL>
0

> <NMREDATA_SOLVENT>
CDCl3

> <NMREDATA_FORMULA>
C24H20BF4PTe

> <NMREDATA_SMILES>
c1ccc(cc1)[Te]P(c1ccccc1)(c1ccccc1)c1ccccc1.F[B](F)(F)F

> <NMREDATA_ASSIGNMENT>
P8, 10.06, 8

> <NMREDATA_1D_31P>
Larmor=243
10.06, L=P8

$$$$
