
 OpenBabel06112616442D

 28 31  0  0  0  0  0  0  0  0999 V2000
   -1.8067   -3.5345    0.0000 C   0  0  0  0  0  0  0  0  0  0  0  0
   -1.1585   -2.8145    0.0000 C   0  0  0  0  0  0  0  0  0  0  0  0
   -1.4579   -1.8932    0.0000 O   0  0  0  0  0  0  0  0  0  0  0  0
   -0.8097   -1.1733    0.0000 C   0  0  0  0  0  0  0  0  0  0  0  0
    0.1379   -1.3747    0.0000 O   0  0  0  0  0  0  0  0  0  0  0  0
   -1.4084    0.6694    0.0000 C   0  0  0  0  0  0  0  0  0  0  0  0
   -2.3297    0.9688    0.0000 C   0  0  0  0  0  0  0  0  0  0  0  0
   -3.1135    0.3993    0.0000 C   0  0  0  0  0  0  0  0  0  0  0  0
   -3.0122   -0.5641    0.0000 C   0  0  0  0  0  0  0  0  0  0  0  0
   -3.7959   -1.1335    0.0000 C   0  0  0  0  0  0  0  0  0  0  0  0
   -4.6809   -0.7395    0.0000 C   0  0  0  0  0  0  0  0  0  0  0  0
   -4.7822    0.2239    0.0000 C   0  0  0  0  0  0  0  0  0  0  0  0
   -5.6672    0.6180    0.0000 C   0  0  0  0  0  0  0  0  0  0  0  0
   -3.9984    0.7934    0.0000 C   0  0  0  0  0  0  0  0  0  0  0  0
   -2.3297    1.9375    0.0000 C   0  0  0  0  0  0  0  0  0  0  0  0
   -3.0496    2.5857    0.0000 C   0  0  0  0  0  0  0  0  0  0  0  0
   -2.8482    3.5333    0.0000 C   0  0  0  0  0  0  0  0  0  0  0  0
   -1.9269    3.8327    0.0000 C   0  0  0  0  0  0  0  0  0  0  0  0
   -1.2070    3.1844    0.0000 C   0  0  0  0  0  0  0  0  0  0  0  0
   -1.4084    2.2369    0.0000 C   0  0  0  0  0  0  0  0  0  0  0  0
   -0.8390    1.4531    0.0000 P   0  0  3  0  0  0  0  0  0  0  0  0
    0.0000    0.9688    0.0000 C   0  0  0  0  0  0  0  0  0  0  0  0
    0.8390    1.4531    0.0000 C   0  0  0  0  0  0  0  0  0  0  0  0
    1.6779    0.9688    0.0000 C   0  0  0  0  0  0  0  0  0  0  0  0
    1.6779    0.0000    0.0000 C   0  0  0  0  0  0  0  0  0  0  0  0
    0.8390   -0.4844    0.0000 C   0  0  0  0  0  0  0  0  0  0  0  0
    0.0000    0.0000    0.0000 C   0  0  0  0  0  0  0  0  0  0  0  0
    0.0000    1.9375    0.0000 O   0  0  0  0  0  0  0  0  0  0  0  0
  1  2  1  0  0  0  0
  2  3  1  0  0  0  0
  3  4  1  0  0  0  0
  4  5  2  0  0  0  0
  4  6  1  0  0  0  0
  6 21  1  0  0  0  0
  6  7  2  0  0  0  0
  7  8  1  0  0  0  0
  7 15  1  0  0  0  0
  8 14  2  0  0  0  0
  8  9  1  0  0  0  0
  9 10  2  0  0  0  0
 10 11  1  0  0  0  0
 11 12  2  0  0  0  0
 12 13  1  0  0  0  0
 12 14  1  0  0  0  0
 15 20  2  0  0  0  0
 15 16  1  0  0  0  0
 16 17  2  0  0  0  0
 17 18  1  0  0  0  0
 18 19  2  0  0  0  0
 19 20  1  0  0  0  0
 20 21  1  0  0  0  0
 21 22  1  0  0  0  0
 21 28  2  0  0  0  0
 22 27  2  0  0  0  0
 22 23  1  0  0  0  0
 23 24  2  0  0  0  0
 24 25  1  0  0  0  0
 25 26  2  0  0  0  0
 26 27  1  0  0  0  0
M  END
> <NMREDATA_VERSION>
1.1

> <NMREDATA_LEVEL>
0

> <NMREDATA_SOLVENT>
CDCl3

> <NMREDATA_FORMULA>
C24H21O3P

> <NMREDATA_SMILES>
CCOC(=O)C1=C(c2cccc(c2)C)c2c(P1(=O)c1ccccc1)cccc2

> <NMREDATA_ASSIGNMENT>
P21, 35.80, 21

> <NMREDATA_1D_31P>
Larmor=202
35.80, L=P21

$$$$
