
 OpenBabel06112616462D

 32 35  0  0  1  0  0  0  0  0999 V2000
   -0.7117   -2.9167    0.0000 C   0  0  0  0  0  0  0  0  0  0  0  0
   -1.5537   -2.4306    0.0000 C   0  0  0  0  0  0  0  0  0  0  0  0
   -2.3957   -2.9167    0.0000 C   0  0  0  0  0  0  0  0  0  0  0  0
   -3.2376   -2.4306    0.0000 C   0  0  0  0  0  0  0  0  0  0  0  0
   -3.2376   -1.4583    0.0000 C   0  0  0  0  0  0  0  0  0  0  0  0
   -2.3957   -0.9722    0.0000 C   0  0  0  0  0  0  0  0  0  0  0  0
   -1.5537   -1.4583    0.0000 C   0  0  0  0  0  0  0  0  0  0  0  0
   -0.7117   -0.9722    0.0000 C   0  0  0  0  0  0  0  0  0  0  0  0
    0.1303   -1.4583    0.0000 C   0  0  0  0  0  0  0  0  0  0  0  0
    0.9722   -0.9722    0.0000 C   0  0  3  0  0  0  0  0  0  0  0  0
    0.9722    0.0000    0.0000 P   0  0  3  0  0  0  0  0  0  0  0  0
    1.9444    0.0000    0.0000 O   0  0  0  0  0  0  0  0  0  0  0  0
    2.9167    1.6839    0.0000 C   0  0  0  0  0  0  0  0  0  0  0  0
    2.4306    2.5259    0.0000 C   0  0  0  0  0  0  0  0  0  0  0  0
    2.9167    3.3679    0.0000 C   0  0  0  0  0  0  0  0  0  0  0  0
    3.8889    3.3679    0.0000 C   0  0  0  0  0  0  0  0  0  0  0  0
    4.3750    2.5259    0.0000 C   0  0  0  0  0  0  0  0  0  0  0  0
    3.8889    1.6839    0.0000 C   0  0  0  0  0  0  0  0  0  0  0  0
    0.9722    0.9722    0.0000 C   0  0  0  0  0  0  0  0  0  0  0  0
    0.1303    1.4583    0.0000 C   0  0  0  0  0  0  0  0  0  0  0  0
    0.1303    2.4306    0.0000 C   0  0  0  0  0  0  0  0  0  0  0  0
    0.9722    2.9167    0.0000 C   0  0  0  0  0  0  0  0  0  0  0  0
    1.8142    2.4306    0.0000 C   0  0  0  0  0  0  0  0  0  0  0  0
    1.8142    1.4583    0.0000 C   0  0  0  0  0  0  0  0  0  0  0  0
    0.0000    0.0000    0.0000 O   0  0  0  0  0  0  0  0  0  0  0  0
    1.8142   -1.4583    0.0000 C   0  0  0  0  0  0  0  0  0  0  0  0
    1.8142   -2.4306    0.0000 C   0  0  0  0  0  0  0  0  0  0  0  0
    2.6562   -2.9167    0.0000 C   0  0  0  0  0  0  0  0  0  0  0  0
    3.4981   -2.4306    0.0000 C   0  0  0  0  0  0  0  0  0  0  0  0
    3.4981   -1.4583    0.0000 C   0  0  0  0  0  0  0  0  0  0  0  0
    2.6562   -0.9722    0.0000 C   0  0  0  0  0  0  0  0  0  0  0  0
    2.6562    0.0000    0.0000 C   0  0  0  0  0  0  0  0  0  0  0  0
  1  2  1  0  0  0  0
  2  7  1  0  0  0  0
  2  3  2  0  0  0  0
  3  4  1  0  0  0  0
  4  5  2  0  0  0  0
  5  6  1  0  0  0  0
  6  7  2  0  0  0  0
  7  8  1  0  0  0  0
  8  9  2  0  0  0  0
  9 10  1  0  0  0  0
 10 11  1  0  0  0  0
 10 26  1  0  0  0  0
 11 12  1  0  0  0  0
 11 19  1  0  0  0  0
 11 25  2  0  0  0  0
 12 13  1  0  0  0  0
 13 18  1  0  0  0  0
 13 14  2  0  0  0  0
 14 15  1  0  0  0  0
 15 16  2  0  0  0  0
 16 17  1  0  0  0  0
 17 18  2  0  0  0  0
 19 24  1  0  0  0  0
 19 20  2  0  0  0  0
 20 21  1  0  0  0  0
 21 22  2  0  0  0  0
 22 23  1  0  0  0  0
 23 24  2  0  0  0  0
 26 31  1  0  0  0  0
 26 27  2  0  0  0  0
 27 28  1  0  0  0  0
 28 29  2  0  0  0  0
 29 30  1  0  0  0  0
 30 31  2  0  0  0  0
 31 32  1  0  0  0  0
M  END
> <NMREDATA_VERSION>
1.1

> <NMREDATA_LEVEL>
0

> <NMREDATA_SOLVENT>
CDCl3

> <NMREDATA_FORMULA>
C29H27O2P

> <NMREDATA_SMILES>
Cc1ccccc1/C=C/C(P(=O)(c1ccccc1)Oc1ccccc1)c1ccccc1C

> <NMREDATA_ASSIGNMENT>
P11, 31.90, 11

> <NMREDATA_1D_31P>
Larmor=162
31.90, L=P11

$$$$
