
 OpenBabel06112616432D

 29 32  0  0  0  0  0  0  0  0999 V2000
    0.8660   -1.5000    0.0000 O   0  0  0  0  0  0  0  0  0  0  0  0
    0.0000   -1.0000    0.0000 C   0  0  0  0  0  0  0  0  0  0  0  0
   -0.8660   -1.5000    0.0000 C   0  0  0  0  0  0  0  0  0  0  0  0
   -1.7321   -1.0000    0.0000 C   0  0  0  0  0  0  0  0  0  0  0  0
   -1.7321    0.0000    0.0000 C   0  0  0  0  0  0  0  0  0  0  0  0
   -2.5981    0.5000    0.0000 C   0  0  0  0  0  0  0  0  0  0  0  0
   -3.4641    0.0000    0.0000 C   0  0  0  0  0  0  0  0  0  0  0  0
   -4.3301    0.5000    0.0000 P   0  0  1  0  0  0  0  0  0  0  0  0
   -5.3301    0.5000    0.0000 O   0  0  0  0  0  0  0  0  0  0  0  0
   -4.8301   -0.3660    0.0000 C   0  0  0  0  0  0  0  0  0  0  0  0
   -4.3301   -1.2321    0.0000 C   0  0  0  0  0  0  0  0  0  0  0  0
   -4.8301   -2.0981    0.0000 C   0  0  0  0  0  0  0  0  0  0  0  0
   -5.8301   -2.0981    0.0000 C   0  0  0  0  0  0  0  0  0  0  0  0
   -6.3301   -1.2321    0.0000 C   0  0  0  0  0  0  0  0  0  0  0  0
   -5.8301   -0.3660    0.0000 C   0  0  0  0  0  0  0  0  0  0  0  0
   -6.3301    0.5000    0.0000 O   0  0  0  0  0  0  0  0  0  0  0  0
   -4.3301    1.5000    0.0000 C   0  0  0  0  0  0  0  0  0  0  0  0
   -5.1962    2.0000    0.0000 C   0  0  0  0  0  0  0  0  0  0  0  0
   -5.1962    3.0000    0.0000 C   0  0  0  0  0  0  0  0  0  0  0  0
   -4.3301    3.5000    0.0000 C   0  0  0  0  0  0  0  0  0  0  0  0
   -3.4641    3.0000    0.0000 C   0  0  0  0  0  0  0  0  0  0  0  0
   -3.4641    2.0000    0.0000 C   0  0  0  0  0  0  0  0  0  0  0  0
   -2.5981    1.5000    0.0000 O   0  0  0  0  0  0  0  0  0  0  0  0
   -0.8660    0.5000    0.0000 C   0  0  0  0  0  0  0  0  0  0  0  0
    0.0000    0.0000    0.0000 C   0  0  0  0  0  0  0  0  0  0  0  0
    0.8660   -2.5000    0.0000 C   0  0  0  0  0  0  0  0  0  0  0  0
    1.3660   -3.3660    0.0000 F   0  0  0  0  0  0  0  0  0  0  0  0
    1.8660   -2.5000    0.0000 F   0  0  0  0  0  0  0  0  0  0  0  0
    0.0000   -3.0000    0.0000 F   0  0  0  0  0  0  0  0  0  0  0  0
  1  2  1  0  0  0  0
  1 26  1  0  0  0  0
  2 25  2  0  0  0  0
  2  3  1  0  0  0  0
  3  4  2  0  0  0  0
  4  5  1  0  0  0  0
  5  6  1  0  0  0  0
  5 24  2  0  0  0  0
  6 23  1  0  0  0  0
  6  7  2  0  0  0  0
  7  8  1  0  0  0  0
  8  9  2  6  0  0  0
  8 10  1  0  0  0  0
  8 17  1  0  0  0  0
 10 15  2  0  0  0  0
 10 11  1  0  0  0  0
 11 12  2  0  0  0  0
 12 13  1  0  0  0  0
 13 14  2  0  0  0  0
 14 15  1  0  0  0  0
 15 16  1  0  0  0  0
 17 22  2  0  0  0  0
 17 18  1  0  0  0  0
 18 19  2  0  0  0  0
 19 20  1  0  0  0  0
 20 21  2  0  0  0  0
 21 22  1  0  0  0  0
 22 23  1  0  0  0  0
 24 25  1  0  0  0  0
 26 27  1  0  0  0  0
 26 28  1  0  0  0  0
 26 29  1  0  0  0  0
M  END
> <NMREDATA_VERSION>
1.1

> <NMREDATA_LEVEL>
0

> <NMREDATA_SOLVENT>
CDCl3

> <NMREDATA_FORMULA>
C21H14F3O4P

> <NMREDATA_SMILES>
Oc1ccccc1[P@]1(=O)C=C(Oc2c1cccc2)c1ccc(cc1)OC(F)(F)F

> <NMREDATA_ASSIGNMENT>
P8, 11.15, 8

> <NMREDATA_1D_31P>
Larmor=162
11.15, L=P8

$$$$
