
 OpenBabel06112616482D

 32 36  0  0  0  0  0  0  0  0999 V2000
    0.8660    1.5000    0.0000 P   0  0  0  0  0  0  0  0  0  0  0  0
    1.7321    2.0000    0.0000 C   0  0  0  0  0  0  0  0  0  0  0  0
    1.8366    2.9945    0.0000 C   0  0  0  0  0  0  0  0  0  0  0  0
    1.0934    3.6637    0.0000 C   0  0  0  0  0  0  0  0  0  0  0  0
    0.1424    3.3546    0.0000 C   0  0  0  0  0  0  0  0  0  0  0  0
   -0.6008    4.0238    0.0000 C   0  0  0  0  0  0  0  0  0  0  0  0
   -0.3929    5.0019    0.0000 C   0  0  0  0  0  0  0  0  0  0  0  0
    0.5582    5.3109    0.0000 C   0  0  0  0  0  0  0  0  0  0  0  0
    1.3013    4.6418    0.0000 C   0  0  0  0  0  0  0  0  0  0  0  0
    2.2524    4.9508    0.0000 O   0  0  0  0  0  0  0  0  0  0  0  0
    2.4603    5.9290    0.0000 C   0  0  0  0  0  0  0  0  0  0  0  0
    3.4114    6.2380    0.0000 C   0  0  0  0  0  0  0  0  0  0  0  0
    2.8147    3.2024    0.0000 N   0  0  0  0  0  0  0  0  0  0  0  0
    3.2215    4.1160    0.0000 C   0  0  0  0  0  0  0  0  0  0  0  0
    3.3147    2.3364    0.0000 C   0  0  0  0  0  0  0  0  0  0  0  0
    4.2929    2.1285    0.0000 C   0  0  0  0  0  0  0  0  0  0  0  0
    4.6019    1.1774    0.0000 C   0  0  0  0  0  0  0  0  0  0  0  0
    3.9328    0.4343    0.0000 C   0  0  0  0  0  0  0  0  0  0  0  0
    2.9546    0.6422    0.0000 C   0  0  0  0  0  0  0  0  0  0  0  0
    2.6456    1.5933    0.0000 C   0  0  0  0  0  0  0  0  0  0  0  0
    0.0000    2.0000    0.0000 C   0  0  0  0  0  0  0  0  0  0  0  0
   -0.8660    1.5000    0.0000 C   0  0  0  0  0  0  0  0  0  0  0  0
   -1.7321    2.0000    0.0000 C   0  0  0  0  0  0  0  0  0  0  0  0
   -1.7321    3.0000    0.0000 C   0  0  0  0  0  0  0  0  0  0  0  0
   -0.8660    3.5000    0.0000 C   0  0  0  0  0  0  0  0  0  0  0  0
    0.0000    3.0000    0.0000 C   0  0  0  0  0  0  0  0  0  0  0  0
    0.8660    0.5000    0.0000 C   0  0  0  0  0  0  0  0  0  0  0  0
    1.7321    0.0000    0.0000 C   0  0  0  0  0  0  0  0  0  0  0  0
    1.7321   -1.0000    0.0000 C   0  0  0  0  0  0  0  0  0  0  0  0
    0.8660   -1.5000    0.0000 C   0  0  0  0  0  0  0  0  0  0  0  0
    0.0000   -1.0000    0.0000 C   0  0  0  0  0  0  0  0  0  0  0  0
    0.0000    0.0000    0.0000 C   0  0  0  0  0  0  0  0  0  0  0  0
  1  2  1  0  0  0  0
  1 21  1  0  0  0  0
  1 27  1  0  0  0  0
  2 20  1  0  0  0  0
  2  3  2  0  0  0  0
  3  4  1  0  0  0  0
  3 13  1  0  0  0  0
  4  9  2  0  0  0  0
  4  5  1  0  0  0  0
  5  6  2  0  0  0  0
  6  7  1  0  0  0  0
  7  8  2  0  0  0  0
  8  9  1  0  0  0  0
  9 10  1  0  0  0  0
 10 11  1  0  0  0  0
 11 12  1  0  0  0  0
 13 14  1  0  0  0  0
 13 15  1  0  0  0  0
 15 20  2  0  0  0  0
 15 16  1  0  0  0  0
 16 17  2  0  0  0  0
 17 18  1  0  0  0  0
 18 19  2  0  0  0  0
 19 20  1  0  0  0  0
 21 26  2  0  0  0  0
 21 22  1  0  0  0  0
 22 23  2  0  0  0  0
 23 24  1  0  0  0  0
 24 25  2  0  0  0  0
 25 26  1  0  0  0  0
 27 32  2  0  0  0  0
 27 28  1  0  0  0  0
 28 29  2  0  0  0  0
 29 30  1  0  0  0  0
 30 31  2  0  0  0  0
 31 32  1  0  0  0  0
M  END
> <NMREDATA_VERSION>
1.1

> <NMREDATA_LEVEL>
0

> <NMREDATA_SOLVENT>
C6D6

> <NMREDATA_FORMULA>
C29H26NOP

> <NMREDATA_SMILES>
CCOc1ccccc1c1c(P(c2ccccc2)c2ccccc2)c2c(n1C)cccc2

> <NMREDATA_ASSIGNMENT>
P1, -27.60, 1

> <NMREDATA_1D_31P>
Larmor=202
-27.60, L=P1

$$$$
