
 OpenBabel06112616442D

 34 38  0  0  0  0  0  0  0  0999 V2000
    6.0029   -0.5000    0.0000 C   0  0  0  0  0  0  0  0  0  0  0  0
    5.1369    0.0000    0.0000 O   0  0  0  0  0  0  0  0  0  0  0  0
    4.2709   -0.5000    0.0000 C   0  0  0  0  0  0  0  0  0  0  0  0
    3.4049    0.0000    0.0000 C   0  0  0  0  0  0  0  0  0  0  0  0
    2.5388   -0.5000    0.0000 C   0  0  0  0  0  0  0  0  0  0  0  0
    2.5388   -1.5000    0.0000 C   0  0  0  0  0  0  0  0  0  0  0  0
    1.5878   -1.8090    0.0000 N   0  0  0  0  0  0  0  0  0  0  0  0
    1.0000   -1.0000    0.0000 C   0  0  0  0  0  0  0  0  0  0  0  0
    1.5878   -0.1910    0.0000 C   0  0  0  0  0  0  0  0  0  0  0  0
    1.2788    0.7601    0.0000 C   0  0  0  0  0  0  0  0  0  0  0  0
    1.9479    1.5032    0.0000 C   0  0  0  0  0  0  0  0  0  0  0  0
    1.6389    2.4543    0.0000 C   0  0  0  0  0  0  0  0  0  0  0  0
    2.3080    3.1974    0.0000 C   0  0  0  0  0  0  0  0  0  0  0  0
    1.9990    4.1485    0.0000 C   0  0  0  0  0  0  0  0  0  0  0  0
    1.0208    4.3564    0.0000 C   0  0  0  0  0  0  0  0  0  0  0  0
    0.3517    3.6132    0.0000 C   0  0  0  0  0  0  0  0  0  0  0  0
    0.6607    2.6622    0.0000 C   0  0  0  0  0  0  0  0  0  0  0  0
    2.9260    1.2953    0.0000 O   0  0  0  0  0  0  0  0  0  0  0  0
    0.0000   -1.0000    0.0000 P   0  0  0  0  0  0  0  0  0  0  0  0
    0.0000   -2.0000    0.0000 C   0  0  0  0  0  0  0  0  0  0  0  0
   -0.8660   -2.5000    0.0000 C   0  0  0  0  0  0  0  0  0  0  0  0
   -0.8660   -3.5000    0.0000 C   0  0  0  0  0  0  0  0  0  0  0  0
    0.0000   -4.0000    0.0000 C   0  0  0  0  0  0  0  0  0  0  0  0
    0.8660   -3.5000    0.0000 C   0  0  0  0  0  0  0  0  0  0  0  0
    0.8660   -2.5000    0.0000 C   0  0  0  0  0  0  0  0  0  0  0  0
   -1.0000   -1.0000    0.0000 C   0  0  0  0  0  0  0  0  0  0  0  0
   -1.5000   -0.1340    0.0000 C   0  0  0  0  0  0  0  0  0  0  0  0
   -2.5000   -0.1340    0.0000 C   0  0  0  0  0  0  0  0  0  0  0  0
   -3.0000   -1.0000    0.0000 C   0  0  0  0  0  0  0  0  0  0  0  0
   -2.5000   -1.8660    0.0000 C   0  0  0  0  0  0  0  0  0  0  0  0
   -1.5000   -1.8660    0.0000 C   0  0  0  0  0  0  0  0  0  0  0  0
    0.0000    0.0000    0.0000 O   0  0  0  0  0  0  0  0  0  0  0  0
    3.4049   -2.0000    0.0000 C   0  0  0  0  0  0  0  0  0  0  0  0
    4.2709   -1.5000    0.0000 C   0  0  0  0  0  0  0  0  0  0  0  0
  1  2  1  0  0  0  0
  2  3  1  0  0  0  0
  3 34  2  0  0  0  0
  3  4  1  0  0  0  0
  4  5  2  0  0  0  0
  5  9  1  0  0  0  0
  5  6  1  0  0  0  0
  6  7  1  0  0  0  0
  6 33  2  0  0  0  0
  7  8  1  0  0  0  0
  8  9  2  0  0  0  0
  8 19  1  0  0  0  0
  9 10  1  0  0  0  0
 10 11  1  0  0  0  0
 11 12  1  0  0  0  0
 11 18  2  0  0  0  0
 12 17  2  0  0  0  0
 12 13  1  0  0  0  0
 13 14  2  0  0  0  0
 14 15  1  0  0  0  0
 15 16  2  0  0  0  0
 16 17  1  0  0  0  0
 19 20  1  0  0  0  0
 19 26  1  0  0  0  0
 19 32  2  0  0  0  0
 20 25  2  0  0  0  0
 20 21  1  0  0  0  0
 21 22  2  0  0  0  0
 22 23  1  0  0  0  0
 23 24  2  0  0  0  0
 24 25  1  0  0  0  0
 26 31  2  0  0  0  0
 26 27  1  0  0  0  0
 27 28  2  0  0  0  0
 28 29  1  0  0  0  0
 29 30  2  0  0  0  0
 30 31  1  0  0  0  0
 33 34  1  0  0  0  0
M  END
> <NMREDATA_VERSION>
1.1

> <NMREDATA_LEVEL>
0

> <NMREDATA_SOLVENT>
CDCl3

> <NMREDATA_FORMULA>
C29H24NO3P

> <NMREDATA_SMILES>
COc1ccc2c(c1)c(CC(=O)c1ccccc1)c([nH]2)P(=O)(c1ccccc1)c1ccccc1

> <NMREDATA_ASSIGNMENT>
P19, 21.30, 19

> <NMREDATA_1D_31P>
Larmor=162
21.30, L=P19

$$$$
