
 OpenBabel06112616492D

 17 19  0  0  0  0  0  0  0  0999 V2000
    4.7137   -2.5316    0.0000 C   0  0  0  0  0  0  0  0  0  0  0  0
    3.7627   -2.2226    0.0000 C   0  0  0  0  0  0  0  0  0  0  0  0
    3.5547   -1.2444    0.0000 C   0  0  0  0  0  0  0  0  0  0  0  0
    2.6037   -0.9354    0.0000 C   0  0  0  0  0  0  0  0  0  0  0  0
    1.8605   -1.6045    0.0000 C   0  0  0  0  0  0  0  0  0  0  0  0
    2.0685   -2.5827    0.0000 C   0  0  0  0  0  0  0  0  0  0  0  0
    3.0195   -2.8917    0.0000 C   0  0  0  0  0  0  0  0  0  0  0  0
    1.2024   -3.0827    0.0000 C   0  0  0  0  0  0  0  0  0  0  0  0
    0.4593   -2.4135    0.0000 O   0  0  0  0  0  0  0  0  0  0  0  0
    0.8660   -1.5000    0.0000 P   0  0  2  0  0  0  0  0  0  0  0  0
    0.8660   -0.5000    0.0000 O   0  0  0  0  0  0  0  0  0  0  0  0
    0.0000   -1.0000    0.0000 C   0  0  0  0  0  0  0  0  0  0  0  0
   -0.8660   -1.5000    0.0000 C   0  0  0  0  0  0  0  0  0  0  0  0
   -1.7321   -1.0000    0.0000 C   0  0  0  0  0  0  0  0  0  0  0  0
   -1.7321    0.0000    0.0000 C   0  0  0  0  0  0  0  0  0  0  0  0
   -0.8660    0.5000    0.0000 C   0  0  0  0  0  0  0  0  0  0  0  0
    0.0000    0.0000    0.0000 C   0  0  0  0  0  0  0  0  0  0  0  0
  1  2  1  0  0  0  0
  2  7  2  0  0  0  0
  2  3  1  0  0  0  0
  3  4  2  0  0  0  0
  4  5  1  0  0  0  0
  5 10  1  0  0  0  0
  5  6  2  0  0  0  0
  6  7  1  0  0  0  0
  6  8  1  0  0  0  0
  8  9  1  0  0  0  0
  9 10  1  0  0  0  0
 10 11  2  6  0  0  0
 10 12  1  0  0  0  0
 12 17  2  0  0  0  0
 12 13  1  0  0  0  0
 13 14  2  0  0  0  0
 14 15  1  0  0  0  0
 15 16  2  0  0  0  0
 16 17  1  0  0  0  0
M  END
> <NMREDATA_VERSION>
1.1

> <NMREDATA_LEVEL>
0

> <NMREDATA_SOLVENT>
CDCl3

> <NMREDATA_FORMULA>
C14H13O2P

> <NMREDATA_SMILES>
Cc1ccc2c(c1)CO[P@@]2(=O)c1ccccc1

> <NMREDATA_ASSIGNMENT>
P10, 49.80, 10

> <NMREDATA_1D_31P>
Larmor=162
49.80, L=P10

$$$$
