
 OpenBabel06112616432D

 35 38  0  0  0  0  0  0  0  0999 V2000
   -4.0886    0.9744    0.0000 O   0  0  0  0  0  0  0  0  0  0  0  0
   -3.2447    0.4872    0.0000 C   0  0  0  0  0  0  0  0  0  0  0  0
   -2.4009    0.9744    0.0000 C   0  0  0  0  0  0  0  0  0  0  0  0
   -1.5571    0.4872    0.0000 C   0  0  0  0  0  0  0  0  0  0  0  0
   -1.5571   -0.4872    0.0000 C   0  0  0  0  0  0  0  0  0  0  0  0
    0.1305   -1.4615    0.0000 C   0  0  0  0  0  0  0  0  0  0  0  0
    0.9744   -0.9744    0.0000 C   0  0  0  0  0  0  0  0  0  0  0  0
    0.9744    0.0000    0.0000 P   0  0  0  0  0  0  0  0  0  0  0  0
    1.9487    0.0000    0.0000 O   0  0  0  0  0  0  0  0  0  0  0  0
    2.4359   -0.8438    0.0000 C   0  0  0  0  0  0  0  0  0  0  0  0
    3.4103   -0.8438    0.0000 C   0  0  0  0  0  0  0  0  0  0  0  0
    0.9744    0.9744    0.0000 O   0  0  0  0  0  0  0  0  0  0  0  0
    1.8182    1.4615    0.0000 C   0  0  0  0  0  0  0  0  0  0  0  0
    2.6620    0.9744    0.0000 C   0  0  0  0  0  0  0  0  0  0  0  0
    0.0000    0.0000    0.0000 O   0  0  0  0  0  0  0  0  0  0  0  0
    1.8182   -1.4615    0.0000 C   0  0  0  0  0  0  0  0  0  0  0  0
    1.8182   -2.4359    0.0000 C   0  0  0  0  0  0  0  0  0  0  0  0
    0.9744   -2.9231    0.0000 C   0  0  0  0  0  0  0  0  0  0  0  0
    0.9744   -3.8974    0.0000 C   0  0  0  0  0  0  0  0  0  0  0  0
    0.1305   -4.3846    0.0000 C   0  0  0  0  0  0  0  0  0  0  0  0
   -0.7133   -3.8974    0.0000 C   0  0  0  0  0  0  0  0  0  0  0  0
   -0.7133   -2.9231    0.0000 N   0  0  0  0  0  0  0  0  0  0  0  0
    0.1305   -2.4359    0.0000 C   0  0  0  0  0  0  0  0  0  0  0  0
   -2.4009   -0.9744    0.0000 C   0  0  0  0  0  0  0  0  0  0  0  0
   -2.4009   -1.9487    0.0000 C   0  0  0  0  0  0  0  0  0  0  0  0
   -3.2447   -2.4359    0.0000 C   0  0  0  0  0  0  0  0  0  0  0  0
   -1.5571   -2.4359    0.0000 C   0  0  0  0  0  0  0  0  0  0  0  0
   -3.2447   -0.4872    0.0000 C   0  0  0  0  0  0  0  0  0  0  0  0
   -4.0886    1.9487    0.0000 C   0  0  0  0  0  0  0  0  0  0  0  0
   -4.9324    2.4359    0.0000 C   0  0  0  0  0  0  0  0  0  0  0  0
   -5.7762    1.9487    0.0000 C   0  0  0  0  0  0  0  0  0  0  0  0
   -6.6200    2.4359    0.0000 C   0  0  0  0  0  0  0  0  0  0  0  0
   -6.6200    3.4103    0.0000 C   0  0  0  0  0  0  0  0  0  0  0  0
   -5.7762    3.8974    0.0000 C   0  0  0  0  0  0  0  0  0  0  0  0
   -4.9324    3.4103    0.0000 C   0  0  0  0  0  0  0  0  0  0  0  0
  1  2  1  0  0  0  0
  1 29  1  0  0  0  0
  2 28  2  0  0  0  0
  2  3  1  0  0  0  0
  3  4  2  0  0  0  0
  4  5  1  0  0  0  0
  5  6  1  0  0  0  0
  5 24  2  0  0  0  0
  6 23  2  0  0  0  0
  6  7  1  0  0  0  0
  7  8  1  0  0  0  0
  7 16  2  0  0  0  0
  8  9  1  0  0  0  0
  8 12  1  0  0  0  0
  8 15  2  0  0  0  0
  9 10  1  0  0  0  0
 10 11  1  0  0  0  0
 12 13  1  0  0  0  0
 13 14  1  0  0  0  0
 16 17  1  0  0  0  0
 17 18  2  0  0  0  0
 18 23  1  0  0  0  0
 18 19  1  0  0  0  0
 19 20  2  0  0  0  0
 20 21  1  0  0  0  0
 21 22  2  0  0  0  0
 22 23  1  0  0  0  0
 24 25  1  0  0  0  0
 24 28  1  0  0  0  0
 25 26  1  0  0  0  0
 25 27  1  0  0  0  0
 29 30  1  0  0  0  0
 30 35  2  0  0  0  0
 30 31  1  0  0  0  0
 31 32  2  0  0  0  0
 32 33  1  0  0  0  0
 33 34  2  0  0  0  0
 34 35  1  0  0  0  0
M  END
> <NMREDATA_VERSION>
1.1

> <NMREDATA_LEVEL>
0

> <NMREDATA_SOLVENT>
CDCl3

> <NMREDATA_FORMULA>
C29H32NO4P

> <NMREDATA_SMILES>
CCOP(=O)(c1ccc2c(c1c1ccc(cc1C(C)C)OCc1ccccc1)nccc2)OCC

> <NMREDATA_ASSIGNMENT>
P8, 16.21, 8

> <NMREDATA_1D_31P>
Larmor=162
16.21, L=P8

$$$$
