
 OpenBabel06112616442D

 42 47  0  0  1  0  0  0  0  0999 V2000
   -1.4688   -0.1312    0.0000 C    0  0  0  0  0  0  0  0  0  0  0  0
   -0.9792   -0.9792    0.0000 C    0  0  0  0  0  0  0  0  0  0  0  0
   -1.4688   -1.8271    0.0000 C    0  0  3  0  0  0  0  0  0  0  0  0
   -1.7222   -2.7730    0.0000 C    0  0  0  0  0  0  0  0  0  0  0  0
   -1.0298   -3.4653    0.0000 Br   0  0  0  0  0  0  0  0  0  0  0  0
   -2.6680   -3.0264    0.0000 C    0  0  0  0  0  0  0  0  0  0  0  0
   -2.9214   -3.9722    0.0000 C    0  0  0  0  0  0  0  0  0  0  0  0
   -2.2290   -4.6646    0.0000 C    0  0  0  0  0  0  0  0  0  0  0  0
   -2.4825   -5.6104    0.0000 C    0  0  0  0  0  0  0  0  0  0  0  0
   -3.4283   -5.8638    0.0000 C    0  0  0  0  0  0  0  0  0  0  0  0
   -4.1206   -5.1714    0.0000 C    0  0  0  0  0  0  0  0  0  0  0  0
   -3.8672   -4.2256    0.0000 C    0  0  0  0  0  0  0  0  0  0  0  0
   -3.3604   -2.3340    0.0000 C    0  0  0  0  0  0  0  0  0  0  0  0
   -3.1069   -1.3882    0.0000 C    0  0  0  0  0  0  0  0  0  0  0  0
   -3.7993   -0.6958    0.0000 C    0  0  0  0  0  0  0  0  0  0  0  0
   -4.7451   -0.9493    0.0000 C    0  0  0  0  0  0  0  0  0  0  0  0
   -4.9985   -1.8951    0.0000 C    0  0  0  0  0  0  0  0  0  0  0  0
   -4.3062   -2.5874    0.0000 C    0  0  0  0  0  0  0  0  0  0  0  0
   -4.5596   -3.5332    0.0000 C    0  0  0  0  0  0  0  0  0  0  0  0
   -2.1611   -1.1348    0.0000 C    0  0  0  0  0  0  0  0  0  0  0  0
   -1.9077   -0.1890    0.0000 O    0  0  0  0  0  0  0  0  0  0  0  0
   -0.2766   -3.3808    0.0000 C    0  0  0  0  0  0  0  0  0  0  0  0
    0.6942   -3.2530    0.0000 C    0  0  0  0  0  0  0  0  0  0  0  0
    1.2903   -4.0298    0.0000 C    0  0  0  0  0  0  0  0  0  0  0  0
    2.2611   -3.9020    0.0000 C    0  0  0  0  0  0  0  0  0  0  0  0
    0.9156   -4.9345    0.0000 C    0  0  0  0  0  0  0  0  0  0  0  0
   -0.0552   -5.0623    0.0000 C    0  0  0  0  0  0  0  0  0  0  0  0
   -0.6513   -4.2854    0.0000 C    0  0  0  0  0  0  0  0  0  0  0  0
    0.0000   -0.9792    0.0000 P    0  0  0  0  0  0  0  0  0  0  0  0
    0.0000   -1.9583    0.0000 O    0  0  0  0  0  0  0  0  0  0  0  0
    0.9792   -0.9792    0.0000 C    0  0  0  0  0  0  0  0  0  0  0  0
    1.4688   -0.1312    0.0000 C    0  0  0  0  0  0  0  0  0  0  0  0
    2.4479   -0.1312    0.0000 C    0  0  0  0  0  0  0  0  0  0  0  0
    2.9375   -0.9792    0.0000 C    0  0  0  0  0  0  0  0  0  0  0  0
    2.4479   -1.8271    0.0000 C    0  0  0  0  0  0  0  0  0  0  0  0
    1.4688   -1.8271    0.0000 C    0  0  0  0  0  0  0  0  0  0  0  0
    0.0000    0.0000    0.0000 C    0  0  0  0  0  0  0  0  0  0  0  0
   -0.8480    0.4896    0.0000 C    0  0  0  0  0  0  0  0  0  0  0  0
   -0.8480    1.4687    0.0000 C    0  0  0  0  0  0  0  0  0  0  0  0
    0.0000    1.9583    0.0000 C    0  0  0  0  0  0  0  0  0  0  0  0
    0.8480    1.4688    0.0000 C    0  0  0  0  0  0  0  0  0  0  0  0
    0.8480    0.4896    0.0000 C    0  0  0  0  0  0  0  0  0  0  0  0
  1  2  2  0  0  0  0
  2  3  1  0  0  0  0
  2 29  1  0  0  0  0
  3 20  1  0  0  0  0
  3  4  1  0  0  0  0
  3 22  1  0  0  0  0
  4  5  1  0  0  0  0
  4  6  2  0  0  0  0
  6  7  1  0  0  0  0
  6 13  1  0  0  0  0
  7 12  2  0  0  0  0
  7  8  1  0  0  0  0
  8  9  2  0  0  0  0
  9 10  1  0  0  0  0
 10 11  2  0  0  0  0
 11 12  1  0  0  0  0
 13 18  2  0  0  0  0
 13 14  1  0  0  0  0
 14 15  2  0  0  0  0
 14 20  1  0  0  0  0
 15 16  1  0  0  0  0
 16 17  2  0  0  0  0
 17 18  1  0  0  0  0
 18 19  1  0  0  0  0
 20 21  2  0  0  0  0
 22 28  2  0  0  0  0
 22 23  1  0  0  0  0
 23 24  2  0  0  0  0
 24 25  1  0  0  0  0
 24 26  1  0  0  0  0
 26 27  2  0  0  0  0
 27 28  1  0  0  0  0
 29 30  2  0  0  0  0
 29 31  1  0  0  0  0
 29 37  1  0  0  0  0
 31 36  2  0  0  0  0
 31 32  1  0  0  0  0
 32 33  2  0  0  0  0
 33 34  1  0  0  0  0
 34 35  2  0  0  0  0
 35 36  1  0  0  0  0
 37 42  2  0  0  0  0
 37 38  1  0  0  0  0
 38 39  2  0  0  0  0
 39 40  1  0  0  0  0
 40 41  2  0  0  0  0
 41 42  1  0  0  0  0
M  END
> <NMREDATA_VERSION>
1.1

> <NMREDATA_LEVEL>
0

> <NMREDATA_SOLVENT>
CDCl3

> <NMREDATA_FORMULA>
C38H30BrO2P

> <NMREDATA_SMILES>
Cc1cccc(c1)C1(C(=C(c2ccccc2)c2c(C1=O)cccc2C)Br)C(=C)P(=O)(c1ccccc1)c1ccccc1

> <NMREDATA_ASSIGNMENT>
P29, 31.10, 29

> <NMREDATA_1D_31P>
Larmor=202
31.10, L=P29

$$$$
