
 OpenBabel06112616442D

 48 54  0  0  1  0  0  0  0  0999 V2000
    3.3404   -0.9643    0.0000 P   0  0  0  0  0  0  0  0  0  0  0  0
    4.1755   -1.4464    0.0000 C   0  0  0  0  0  0  0  0  0  0  0  0
    5.0106   -0.9643    0.0000 C   0  0  0  0  0  0  0  0  0  0  0  0
    5.8457   -1.4464    0.0000 C   0  0  0  0  0  0  0  0  0  0  0  0
    5.8457   -2.4107    0.0000 C   0  0  0  0  0  0  0  0  0  0  0  0
    5.0106   -2.8929    0.0000 C   0  0  0  0  0  0  0  0  0  0  0  0
    4.1755   -2.4107    0.0000 C   0  0  0  0  0  0  0  0  0  0  0  0
    3.3404    0.0000    0.0000 C   0  0  0  0  0  0  0  0  0  0  0  0
    2.5053    0.4821    0.0000 C   0  0  0  0  0  0  0  0  0  0  0  0
    2.5053    1.4464    0.0000 C   0  0  0  0  0  0  0  0  0  0  0  0
    3.3404    1.9286    0.0000 C   0  0  0  0  0  0  0  0  0  0  0  0
    4.1755    1.4464    0.0000 C   0  0  0  0  0  0  0  0  0  0  0  0
    4.1755    0.4821    0.0000 C   0  0  0  0  0  0  0  0  0  0  0  0
    1.6702   -1.9286    0.0000 C   0  0  0  0  0  0  0  0  0  0  0  0
    0.8351   -1.4464    0.0000 C   0  0  1  0  0  0  0  0  0  0  0  0
    0.0000   -1.9286    0.0000 C   0  0  0  0  0  0  0  0  0  0  0  0
    0.0000   -2.8929    0.0000 N   0  0  0  0  0  0  0  0  0  0  0  0
   -0.8351   -3.3750    0.0000 C   0  0  0  0  0  0  0  0  0  0  0  0
   -0.8351   -4.3393    0.0000 C   0  0  1  0  0  0  0  0  0  0  0  0
   -2.5053   -5.3036    0.0000 C   0  0  0  0  0  0  0  0  0  0  0  0
   -3.3404   -4.8214    0.0000 P   0  0  0  0  0  0  0  0  0  0  0  0
   -3.3404   -3.8571    0.0000 C   0  0  0  0  0  0  0  0  0  0  0  0
   -4.1755   -3.3750    0.0000 C   0  0  0  0  0  0  0  0  0  0  0  0
   -4.1755   -2.4107    0.0000 C   0  0  0  0  0  0  0  0  0  0  0  0
   -3.3404   -1.9286    0.0000 C   0  0  0  0  0  0  0  0  0  0  0  0
   -2.5053   -2.4107    0.0000 C   0  0  0  0  0  0  0  0  0  0  0  0
   -2.5053   -3.3750    0.0000 C   0  0  0  0  0  0  0  0  0  0  0  0
   -4.1755   -5.3036    0.0000 C   0  0  0  0  0  0  0  0  0  0  0  0
   -4.1755   -6.2679    0.0000 C   0  0  0  0  0  0  0  0  0  0  0  0
   -5.0106   -6.7500    0.0000 C   0  0  0  0  0  0  0  0  0  0  0  0
   -5.8457   -6.2679    0.0000 C   0  0  0  0  0  0  0  0  0  0  0  0
   -5.8457   -5.3036    0.0000 C   0  0  0  0  0  0  0  0  0  0  0  0
   -5.0106   -4.8214    0.0000 C   0  0  0  0  0  0  0  0  0  0  0  0
    0.0000   -4.8214    0.0000 C   0  0  0  0  0  0  0  0  0  0  0  0
    0.8351   -4.3393    0.0000 C   0  0  0  0  0  0  0  0  0  0  0  0
    1.6702   -4.8214    0.0000 C   0  0  0  0  0  0  0  0  0  0  0  0
    1.6702   -5.7857    0.0000 C   0  0  0  0  0  0  0  0  0  0  0  0
    0.8351   -6.2679    0.0000 C   0  0  0  0  0  0  0  0  0  0  0  0
    0.0000   -5.7857    0.0000 C   0  0  0  0  0  0  0  0  0  0  0  0
   -1.6702   -2.8929    0.0000 C   0  0  0  0  0  0  0  0  0  0  0  0
   -1.6702   -1.9286    0.0000 C   0  0  0  0  0  0  0  0  0  0  0  0
   -0.8351   -1.4464    0.0000 C   0  0  0  0  0  0  0  0  0  0  0  0
    0.8351   -0.4821    0.0000 C   0  0  0  0  0  0  0  0  0  0  0  0
    1.6702    0.0000    0.0000 C   0  0  0  0  0  0  0  0  0  0  0  0
    1.6702    0.9643    0.0000 C   0  0  0  0  0  0  0  0  0  0  0  0
    0.8351    1.4464    0.0000 C   0  0  0  0  0  0  0  0  0  0  0  0
    0.0000    0.9643    0.0000 C   0  0  0  0  0  0  0  0  0  0  0  0
    0.0000    0.0000    0.0000 C   0  0  0  0  0  0  0  0  0  0  0  0
  1  2  1  0  0  0  0
  1  8  1  0  0  0  0
  1 14  1  0  0  0  0
  2  7  2  0  0  0  0
  2  3  1  0  0  0  0
  3  4  2  0  0  0  0
  4  5  1  0  0  0  0
  5  6  2  0  0  0  0
  6  7  1  0  0  0  0
  8 13  2  0  0  0  0
  8  9  1  0  0  0  0
  9 10  2  0  0  0  0
 10 11  1  0  0  0  0
 11 12  2  0  0  0  0
 12 13  1  0  0  0  0
 15 14  1  1  0  0  0
 15 16  1  0  0  0  0
 15 43  1  0  0  0  0
 16 42  2  0  0  0  0
 16 17  1  0  0  0  0
 17 18  2  0  0  0  0
 18 19  1  0  0  0  0
 18 40  1  0  0  0  0
 19 20  1  6  0  0  0
 19 34  1  0  0  0  0
 20 21  1  0  0  0  0
 21 22  1  0  0  0  0
 21 28  1  0  0  0  0
 22 27  2  0  0  0  0
 22 23  1  0  0  0  0
 23 24  2  0  0  0  0
 24 25  1  0  0  0  0
 25 26  2  0  0  0  0
 26 27  1  0  0  0  0
 28 33  2  0  0  0  0
 28 29  1  0  0  0  0
 29 30  2  0  0  0  0
 30 31  1  0  0  0  0
 31 32  2  0  0  0  0
 32 33  1  0  0  0  0
 34 39  2  0  0  0  0
 34 35  1  0  0  0  0
 35 36  2  0  0  0  0
 36 37  1  0  0  0  0
 37 38  2  0  0  0  0
 38 39  1  0  0  0  0
 40 41  2  0  0  0  0
 41 42  1  0  0  0  0
 43 48  2  0  0  0  0
 43 44  1  0  0  0  0
 44 45  2  0  0  0  0
 45 46  1  0  0  0  0
 46 47  2  0  0  0  0
 47 48  1  0  0  0  0
M  END
> <NMREDATA_VERSION>
1.1

> <NMREDATA_LEVEL>
0

> <NMREDATA_SOLVENT>
CDCl3

> <NMREDATA_FORMULA>
C45H39NP2

> <NMREDATA_SMILES>
c1ccc(cc1)[C@H](c1cccc(n1)[C@H](c1ccccc1)CP(c1ccccc1)c1ccccc1)CP(c1ccccc1)c1ccccc1

> <NMREDATA_ASSIGNMENT>
P1, -20.20, 1
P21, -20.20, 21

> <NMREDATA_1D_31P>
Larmor=162
-20.20, L=P1
-20.20, L=P21

$$$$
