
 OpenBabel06112616462D

 18 19  0  0  0  0  0  0  0  0999 V2000
    2.6876   -0.4807    0.0000 C    0  0  0  0  0  0  0  0  0  0  0  0
    3.6185   -0.1153    0.0000 C    0  0  0  0  0  0  0  0  0  0  0  0
    1.9058    0.1428    0.0000 O    0  0  0  0  0  0  0  0  0  0  0  0
    0.9749   -0.2225    0.0000 P    0  0  3  0  0  0  0  0  0  0  0  0
    1.1240    0.7663    0.0000 O    0  0  0  0  0  0  0  0  0  0  0  0
    1.4088   -1.1235    0.0000 N    0  0  0  0  0  0  0  0  0  0  0  0
    0.9749   -2.0245    0.0000 C    0  0  0  0  0  0  0  0  0  0  0  0
    0.0000   -2.2470    0.0000 C    0  0  0  0  0  0  0  0  0  0  0  0
   -0.6802   -2.9800    0.0000 C    0  0  0  0  0  0  0  0  0  0  0  0
    0.2948   -3.2026    0.0000 C    0  0  0  0  0  0  0  0  0  0  0  0
   -0.7818   -1.6235    0.0000 C    0  0  0  0  0  0  0  0  0  0  0  0
   -1.6479   -2.1235    0.0000 C    0  0  0  0  0  0  0  0  0  0  0  0
   -2.5139   -1.6235    0.0000 C    0  0  0  0  0  0  0  0  0  0  0  0
   -2.5139   -0.6235    0.0000 C    0  0  0  0  0  0  0  0  0  0  0  0
   -3.3799   -0.1235    0.0000 Br   0  0  0  0  0  0  0  0  0  0  0  0
   -1.6479   -0.1235    0.0000 C    0  0  0  0  0  0  0  0  0  0  0  0
   -0.7818   -0.6235    0.0000 C    0  0  0  0  0  0  0  0  0  0  0  0
    0.0000    0.0000    0.0000 O    0  0  0  0  0  0  0  0  0  0  0  0
  1  2  1  0  0  0  0
  1  3  1  0  0  0  0
  3  4  1  0  0  0  0
  4 18  1  0  0  0  0
  4  5  2  0  0  0  0
  4  6  1  0  0  0  0
  6  7  1  0  0  0  0
  7  8  1  0  0  0  0
  8  9  1  0  0  0  0
  8 10  1  0  0  0  0
  8 11  1  0  0  0  0
 11 17  2  0  0  0  0
 11 12  1  0  0  0  0
 12 13  2  0  0  0  0
 13 14  1  0  0  0  0
 14 15  1  0  0  0  0
 14 16  2  0  0  0  0
 16 17  1  0  0  0  0
 17 18  1  0  0  0  0
M  END
> <NMREDATA_VERSION>
1.1

> <NMREDATA_LEVEL>
0

> <NMREDATA_SOLVENT>
CDCl3

> <NMREDATA_FORMULA>
C12H17BrNO3P

> <NMREDATA_SMILES>
CCOP1(=O)NCC(c2c(O1)cc(Br)cc2)(C)C

> <NMREDATA_ASSIGNMENT>
P4, 7.24, 4

> <NMREDATA_1D_31P>
Larmor=161MHz
7.24, L=P4

$$$$
