
 OpenBabel06112616482D

 18 19  0  0  0  0  0  0  0  0999 V2000
    1.1248    0.4659    0.0000 O    0  0  0  0  0  0  0  0  0  0  0  0
    2.0908    0.7247    0.0000 C    0  0  0  0  0  0  0  0  0  0  0  0
    2.7979    0.0176    0.0000 C    0  0  0  0  0  0  0  0  0  0  0  0
    0.8660   -0.5000    0.0000 P    0  0  3  0  0  0  0  0  0  0  0  0
    1.6594   -1.1088    0.0000 O    0  0  0  0  0  0  0  0  0  0  0  0
    0.8660   -1.5000    0.0000 C    0  0  0  0  0  0  0  0  0  0  0  0
    0.0000   -2.0000    0.0000 C    0  0  0  0  0  0  0  0  0  0  0  0
    0.0000   -3.0000    0.0000 C    0  0  0  0  0  0  0  0  0  0  0  0
   -0.8660   -3.5000    0.0000 C    0  0  0  0  0  0  0  0  0  0  0  0
   -1.7321   -3.0000    0.0000 C    0  0  0  0  0  0  0  0  0  0  0  0
   -2.5981   -3.5000    0.0000 Cl   0  0  0  0  0  0  0  0  0  0  0  0
   -0.8660   -1.5000    0.0000 C    0  0  0  0  0  0  0  0  0  0  0  0
   -1.7321   -2.0000    0.0000 C    0  0  0  0  0  0  0  0  0  0  0  0
   -2.5981   -1.5000    0.0000 C    0  0  0  0  0  0  0  0  0  0  0  0
   -2.5981   -0.5000    0.0000 C    0  0  0  0  0  0  0  0  0  0  0  0
   -1.7321    0.0000    0.0000 C    0  0  0  0  0  0  0  0  0  0  0  0
   -0.8660   -0.5000    0.0000 C    0  0  0  0  0  0  0  0  0  0  0  0
    0.0000    0.0000    0.0000 O    0  0  0  0  0  0  0  0  0  0  0  0
  1  2  1  0  0  0  0
  1  4  1  0  0  0  0
  2  3  1  0  0  0  0
  4 18  1  0  0  0  0
  4  5  2  0  0  0  0
  4  6  1  0  0  0  0
  6  7  2  0  0  0  0
  7  8  1  0  0  0  0
  7 12  1  0  0  0  0
  8  9  1  0  0  0  0
  9 10  1  0  0  0  0
 10 11  1  0  0  0  0
 12 17  2  0  0  0  0
 12 13  1  0  0  0  0
 13 14  2  0  0  0  0
 14 15  1  0  0  0  0
 15 16  2  0  0  0  0
 16 17  1  0  0  0  0
 17 18  1  0  0  0  0
M  END
> <NMREDATA_VERSION>
1.1

> <NMREDATA_LEVEL>
0

> <NMREDATA_SOLVENT>
CDCl3

> <NMREDATA_FORMULA>
C13H16ClO3P

> <NMREDATA_SMILES>
ClCCCC1=CP(=O)(OCC)Oc2c1cccc2

> <NMREDATA_ASSIGNMENT>
P4, 9.00, 4

> <NMREDATA_1D_31P>
Larmor=202
9.00, L=P4

$$$$
