
 OpenBabel06112616442D

 32 35  0  0  1  0  0  0  0  0999 V2000
    4.2139   -2.5878    0.0000 C   0  0  0  0  0  0  0  0  0  0  0  0
    3.4049   -2.0000    0.0000 C   0  0  0  0  0  0  0  0  0  0  0  0
    2.4538   -2.3090    0.0000 N   0  0  0  0  0  0  0  0  0  0  0  0
    1.8660   -1.5000    0.0000 C   0  0  3  0  0  0  0  0  0  0  0  0
    1.0000   -1.0000    0.0000 C   0  0  0  0  0  0  0  0  0  0  0  0
    1.0000    0.0000    0.0000 P   0  0  0  0  0  0  0  0  0  0  0  0
    2.0000    0.0000    0.0000 O   0  0  0  0  0  0  0  0  0  0  0  0
    1.0000    1.0000    0.0000 O   0  0  0  0  0  0  0  0  0  0  0  0
    1.8660    1.5000    0.0000 C   0  0  0  0  0  0  0  0  0  0  0  0
    2.7321    1.0000    0.0000 C   0  0  0  0  0  0  0  0  0  0  0  0
    0.0000    0.0000    0.0000 O   0  0  0  0  0  0  0  0  0  0  0  0
   -0.5000    0.8660    0.0000 C   0  0  0  0  0  0  0  0  0  0  0  0
    0.0000    1.7321    0.0000 C   0  0  0  0  0  0  0  0  0  0  0  0
    1.0000   -2.0000    0.0000 C   0  0  0  0  0  0  0  0  0  0  0  0
    1.0000   -3.0000    0.0000 C   0  0  0  0  0  0  0  0  0  0  0  0
    0.1340   -3.5000    0.0000 C   0  0  0  0  0  0  0  0  0  0  0  0
   -0.7321   -3.0000    0.0000 C   0  0  0  0  0  0  0  0  0  0  0  0
   -1.5981   -3.5000    0.0000 C   0  0  0  0  0  0  0  0  0  0  0  0
   -2.4641   -3.0000    0.0000 C   0  0  0  0  0  0  0  0  0  0  0  0
   -2.4641   -2.0000    0.0000 C   0  0  0  0  0  0  0  0  0  0  0  0
   -1.5981   -1.5000    0.0000 C   0  0  0  0  0  0  0  0  0  0  0  0
   -0.7321   -2.0000    0.0000 C   0  0  0  0  0  0  0  0  0  0  0  0
    0.1340   -1.5000    0.0000 C   0  0  0  0  0  0  0  0  0  0  0  0
    2.4538   -0.6910    0.0000 C   0  0  0  0  0  0  0  0  0  0  0  0
    3.4049   -1.0000    0.0000 C   0  0  0  0  0  0  0  0  0  0  0  0
    4.3994   -0.8955    0.0000 C   0  0  0  0  0  0  0  0  0  0  0  0
    3.8116   -0.0865    0.0000 C   0  0  0  0  0  0  0  0  0  0  0  0
    5.1274   -2.1810    0.0000 C   0  0  0  0  0  0  0  0  0  0  0  0
    5.9364   -2.7688    0.0000 C   0  0  0  0  0  0  0  0  0  0  0  0
    5.8319   -3.7634    0.0000 C   0  0  0  0  0  0  0  0  0  0  0  0
    4.9184   -4.1701    0.0000 C   0  0  0  0  0  0  0  0  0  0  0  0
    4.1094   -3.5823    0.0000 C   0  0  0  0  0  0  0  0  0  0  0  0
  1 32  2  0  0  0  0
  1  2  1  0  0  0  0
  1 28  1  0  0  0  0
  2 25  1  0  0  0  0
  2  3  2  0  0  0  0
  3  4  1  0  0  0  0
  4  5  1  0  0  0  0
  4 14  1  0  0  0  0
  4 24  1  0  0  0  0
  5  6  1  0  0  0  0
  6  7  2  0  0  0  0
  6  8  1  0  0  0  0
  6 11  1  0  0  0  0
  8  9  1  0  0  0  0
  9 10  1  0  0  0  0
 11 12  1  0  0  0  0
 12 13  1  0  0  0  0
 14 23  2  0  0  0  0
 14 15  1  0  0  0  0
 15 16  2  0  0  0  0
 16 17  1  0  0  0  0
 17 22  2  0  0  0  0
 17 18  1  0  0  0  0
 18 19  2  0  0  0  0
 19 20  1  0  0  0  0
 20 21  2  0  0  0  0
 21 22  1  0  0  0  0
 22 23  1  0  0  0  0
 24 25  1  0  0  0  0
 25 26  1  0  0  0  0
 25 27  1  0  0  0  0
 28 29  2  0  0  0  0
 29 30  1  0  0  0  0
 30 31  2  0  0  0  0
 31 32  1  0  0  0  0
M  END
> <NMREDATA_VERSION>
1.1

> <NMREDATA_LEVEL>
0

> <NMREDATA_SOLVENT>
CDCl3

> <NMREDATA_FORMULA>
C27H32NO3P

> <NMREDATA_SMILES>
CCOP(=O)(CC1(N=C(C(C1)(C)C)c1ccccc1)c1ccc2c(c1)cccc2)OCC

> <NMREDATA_ASSIGNMENT>
P6, 26.64, 6

> <NMREDATA_1D_31P>
Larmor=162
26.64, L=P6

$$$$
