
 OpenBabel06112616442D

 45 49  0  0  1  0  0  0  0  0999 V2000
    9.9922   -1.5000    0.0000 O   0  0  0  0  0  0  0  0  0  0  0  0
   10.9922   -1.5000    0.0000 S   0  0  0  0  0  0  0  0  0  0  0  0
   10.9922   -2.5000    0.0000 O   0  0  0  0  0  0  0  0  0  0  0  0
   11.9922   -1.5000    0.0000 C   0  0  0  0  0  0  0  0  0  0  0  0
   12.8583   -1.0000    0.0000 F   0  0  0  0  0  0  0  0  0  0  0  0
   11.9922   -0.5000    0.0000 F   0  0  0  0  0  0  0  0  0  0  0  0
   12.4922   -2.3660    0.0000 F   0  0  0  0  0  0  0  0  0  0  0  0
   10.9922   -0.5000    0.0000 O   0  5  0  0  0  0  0  0  0  0  0  0
    6.1286   -6.2273    0.0000 C   0  0  0  0  0  0  0  0  0  0  0  0
    5.3019   -5.7500    0.0000 C   0  0  0  0  0  0  0  0  0  0  0  0
    5.3019   -4.7955    0.0000 C   0  0  0  0  0  0  0  0  0  0  0  0
    6.1286   -4.3182    0.0000 C   0  0  0  0  0  0  0  0  0  0  0  0
    6.1286   -3.3636    0.0000 P   0  3  0  0  0  0  0  0  0  0  0  0
    7.0832   -3.3636    0.0000 C   0  0  0  0  0  0  0  0  0  0  0  0
    7.5604   -2.5370    0.0000 C   0  0  0  0  0  0  0  0  0  0  0  0
    8.5150   -2.5370    0.0000 C   0  0  0  0  0  0  0  0  0  0  0  0
    8.9922   -3.3636    0.0000 C   0  0  0  0  0  0  0  0  0  0  0  0
    8.5150   -4.1903    0.0000 C   0  0  0  0  0  0  0  0  0  0  0  0
    7.5604   -4.1903    0.0000 C   0  0  0  0  0  0  0  0  0  0  0  0
    6.1286   -2.4091    0.0000 C   0  0  0  0  0  0  0  0  0  0  0  0
    5.3019   -1.9318    0.0000 C   0  0  0  0  0  0  0  0  0  0  0  0
    5.3019   -0.9773    0.0000 C   0  0  0  0  0  0  0  0  0  0  0  0
    6.1286   -0.5000    0.0000 C   0  0  0  0  0  0  0  0  0  0  0  0
    6.9553   -0.9773    0.0000 C   0  0  0  0  0  0  0  0  0  0  0  0
    6.9553   -1.9318    0.0000 C   0  0  0  0  0  0  0  0  0  0  0  0
    4.2195   -3.3636    0.0000 C   0  0  3  0  0  0  0  0  0  0  0  0
    3.2650   -5.0170    0.0000 C   0  0  0  0  0  0  0  0  0  0  0  0
    2.3157   -5.1167    0.0000 C   0  0  0  0  0  0  0  0  0  0  0  0
    2.1172   -6.0504    0.0000 C   0  0  0  0  0  0  0  0  0  0  0  0
    2.9439   -6.5277    0.0000 N   0  0  0  0  0  0  0  0  0  0  0  0
    3.0436   -7.4770    0.0000 C   0  0  0  0  0  0  0  0  0  0  0  0
    3.6532   -5.8890    0.0000 C   0  0  0  0  0  0  0  0  0  0  0  0
    1.2094   -6.3454    0.0000 C   0  0  0  0  0  0  0  0  0  0  0  0
    0.5000   -5.7067    0.0000 C   0  0  0  0  0  0  0  0  0  0  0  0
    0.6985   -4.7730    0.0000 C   0  0  0  0  0  0  0  0  0  0  0  0
    1.6063   -4.4780    0.0000 C   0  0  0  0  0  0  0  0  0  0  0  0
    3.7422   -2.5370    0.0000 C   0  0  0  0  0  0  0  0  0  0  0  0
    2.7877   -2.5370    0.0000 C   0  0  0  0  0  0  0  0  0  0  0  0
    2.3104   -3.3636    0.0000 O   0  0  0  0  0  0  0  0  0  0  0  0
    2.3104   -1.7103    0.0000 C   0  0  0  0  0  0  0  0  0  0  0  0
    2.7877   -0.8837    0.0000 C   0  0  0  0  0  0  0  0  0  0  0  0
    3.7422   -0.8837    0.0000 C   0  0  0  0  0  0  0  0  0  0  0  0
    4.2195   -1.7103    0.0000 C   0  0  0  0  0  0  0  0  0  0  0  0
    6.9553   -4.7955    0.0000 C   0  0  0  0  0  0  0  0  0  0  0  0
    6.9553   -5.7500    0.0000 C   0  0  0  0  0  0  0  0  0  0  0  0
  1  2  2  0  0  0  0
  2  3  2  0  0  0  0
  2  4  1  0  0  0  0
  2  8  1  0  0  0  0
  4  5  1  0  0  0  0
  4  6  1  0  0  0  0
  4  7  1  0  0  0  0
  9 45  2  0  0  0  0
  9 10  1  0  0  0  0
 10 11  2  0  0  0  0
 11 12  1  0  0  0  0
 12 13  1  0  0  0  0
 12 44  2  0  0  0  0
 13 14  1  0  0  0  0
 13 20  1  0  0  0  0
 13 26  1  0  0  0  0
 14 19  2  0  0  0  0
 14 15  1  0  0  0  0
 15 16  2  0  0  0  0
 16 17  1  0  0  0  0
 17 18  2  0  0  0  0
 18 19  1  0  0  0  0
 20 25  2  0  0  0  0
 20 21  1  0  0  0  0
 21 22  2  0  0  0  0
 22 23  1  0  0  0  0
 23 24  2  0  0  0  0
 24 25  1  0  0  0  0
 26 27  1  0  0  0  0
 26 37  1  0  0  0  0
 27 32  2  0  0  0  0
 27 28  1  0  0  0  0
 28 36  2  0  0  0  0
 28 29  1  0  0  0  0
 29 30  1  0  0  0  0
 29 33  2  0  0  0  0
 30 31  1  0  0  0  0
 30 32  1  0  0  0  0
 33 34  1  0  0  0  0
 34 35  2  0  0  0  0
 35 36  1  0  0  0  0
 37 43  2  0  0  0  0
 37 38  1  0  0  0  0
 38 39  1  0  0  0  0
 38 40  2  0  0  0  0
 40 41  1  0  0  0  0
 41 42  2  0  0  0  0
 42 43  1  0  0  0  0
 44 45  1  0  0  0  0
M  END
> <NMREDATA_VERSION>
1.1

> <NMREDATA_LEVEL>
0

> <NMREDATA_SOLVENT>
CDCl3

> <NMREDATA_FORMULA>
C35H29F3NO4PS

> <NMREDATA_SMILES>
FC(S(=O)(=O)[O-])(F)F.Oc1ccccc1C([P+](c1ccccc1)(c1ccccc1)c1ccccc1)c1cn(c2c1cccc2)C

> <NMREDATA_ASSIGNMENT>
P13, 22.80, 13

> <NMREDATA_1D_31P>
Larmor=162
22.80, L=P13

$$$$
