
 OpenBabel06112616472D

 38 43  0  0  1  0  0  0  0  0999 V2000
    0.8245   -1.4281    0.0000 C   0  0  0  0  0  0  0  0  0  0  0  0
    0.0000   -0.9520    0.0000 C   0  0  0  0  0  0  0  0  0  0  0  0
   -0.8245   -1.4281    0.0000 C   0  0  0  0  0  0  0  0  0  0  0  0
   -1.6490   -0.9520    0.0000 C   0  0  0  0  0  0  0  0  0  0  0  0
   -1.6490    0.0000    0.0000 C   0  0  0  0  0  0  0  0  0  0  0  0
   -2.4735    0.4760    0.0000 C   0  0  0  0  0  0  0  0  0  0  0  0
   -2.4735    1.4280    0.0000 C   0  0  0  0  0  0  0  0  0  0  0  0
   -3.2979    1.9041    0.0000 C   0  0  0  0  0  0  0  0  0  0  0  0
   -4.1224    1.4280    0.0000 C   0  0  0  0  0  0  0  0  0  0  0  0
   -4.1224    0.4760    0.0000 C   0  0  0  0  0  0  0  0  0  0  0  0
   -3.2979    0.0000    0.0000 C   0  0  0  0  0  0  0  0  0  0  0  0
   -3.2982   -0.9523    0.0000 C   0  0  0  0  0  0  0  0  0  0  0  0
   -4.1228   -1.4281    0.0000 P   0  0  3  0  0  0  0  0  0  0  0  0
   -3.2985   -1.9045    0.0000 O   0  0  0  0  0  0  0  0  0  0  0  0
   -4.9472   -1.9039    0.0000 C   0  0  0  0  0  0  0  0  0  0  0  0
   -5.7718   -1.4276    0.0000 C   0  0  0  0  0  0  0  0  0  0  0  0
   -5.7714   -0.4756    0.0000 C   0  0  0  0  0  0  0  0  0  0  0  0
   -6.5957    0.0008    0.0000 C   0  0  0  0  0  0  0  0  0  0  0  0
   -7.4204   -0.4749    0.0000 C   0  0  0  0  0  0  0  0  0  0  0  0
   -7.4208   -1.4270    0.0000 C   0  0  0  0  0  0  0  0  0  0  0  0
   -6.5965   -1.9033    0.0000 C   0  0  0  0  0  0  0  0  0  0  0  0
   -6.5968   -2.8553    0.0000 C   0  0  0  0  0  0  0  0  0  0  0  0
   -5.7725   -3.3317    0.0000 C   0  0  0  0  0  0  0  0  0  0  0  0
   -5.7729   -4.2837    0.0000 C   0  0  0  0  0  0  0  0  0  0  0  0
   -6.5976   -4.7594    0.0000 C   0  0  0  0  0  0  0  0  0  0  0  0
   -6.5980   -5.7114    0.0000 C   0  0  0  0  0  0  0  0  0  0  0  0
   -6.1223   -6.5361    0.0000 F   0  0  0  0  0  0  0  0  0  0  0  0
   -5.6459   -5.7118    0.0000 F   0  0  0  0  0  0  0  0  0  0  0  0
   -7.4227   -6.1871    0.0000 F   0  0  0  0  0  0  0  0  0  0  0  0
   -7.4219   -4.2831    0.0000 C   0  0  0  0  0  0  0  0  0  0  0  0
   -7.4215   -3.3310    0.0000 C   0  0  0  0  0  0  0  0  0  0  0  0
   -4.9470    0.0001    0.0000 C   0  0  3  0  0  0  0  0  0  0  0  0
   -4.9472   -0.9517    0.0000 C   0  0  0  0  0  0  0  0  0  0  0  0
   -0.8245    0.4760    0.0000 C   0  0  0  0  0  0  0  0  0  0  0  0
    0.0000    0.0000    0.0000 C   0  0  0  0  0  0  0  0  0  0  0  0
    1.7765   -1.4281    0.0000 F   0  0  0  0  0  0  0  0  0  0  0  0
    1.3005   -0.6036    0.0000 F   0  0  0  0  0  0  0  0  0  0  0  0
    0.8245   -2.3801    0.0000 F   0  0  0  0  0  0  0  0  0  0  0  0
  1  2  1  0  0  0  0
  1 36  1  0  0  0  0
  1 37  1  0  0  0  0
  1 38  1  0  0  0  0
  2 35  2  0  0  0  0
  2  3  1  0  0  0  0
  3  4  2  0  0  0  0
  4  5  1  0  0  0  0
  5  6  1  0  0  0  0
  5 34  2  0  0  0  0
  6 11  2  0  0  0  0
  6  7  1  0  0  0  0
  7  8  2  0  0  0  0
  8  9  1  0  0  0  0
  9 10  2  0  0  0  0
 10 32  1  0  0  0  0
 10 11  1  0  0  0  0
 11 12  1  0  0  0  0
 12 13  1  0  0  0  0
 13 33  1  0  0  0  0
 13 14  2  0  0  0  0
 13 15  1  0  0  0  0
 15 16  1  0  0  0  0
 16 21  2  0  0  0  0
 16 17  1  0  0  0  0
 17 18  2  0  0  0  0
 17 32  1  0  0  0  0
 18 19  1  0  0  0  0
 19 20  2  0  0  0  0
 20 21  1  0  0  0  0
 21 22  1  0  0  0  0
 22 31  2  0  0  0  0
 22 23  1  0  0  0  0
 23 24  2  0  0  0  0
 24 25  1  0  0  0  0
 25 26  1  0  0  0  0
 25 30  2  0  0  0  0
 26 27  1  0  0  0  0
 26 28  1  0  0  0  0
 26 29  1  0  0  0  0
 30 31  1  0  0  0  0
 32 33  1  0  0  0  0
 34 35  1  0  0  0  0
M  END
> <NMREDATA_VERSION>
1.1

> <NMREDATA_LEVEL>
0

> <NMREDATA_SOLVENT>
CDCl3

> <NMREDATA_FORMULA>
C30H21F6OP

> <NMREDATA_SMILES>
O=P12CC(c3c(C2)c(ccc3)c2ccc(cc2)C(F)(F)F)c2c(C1)c(ccc2)c1ccc(cc1)C(F)(F)F

> <NMREDATA_ASSIGNMENT>
P13, 31.00, 13

> <NMREDATA_1D_31P>
Larmor=162
31.00, L=P13

$$$$
