
 OpenBabel06112616452D

 40 45  0  0  1  0  0  0  0  0999 V2000
    3.4920   -3.7119    0.0000 C   0  0  0  0  0  0  0  0  0  0  0  0
    3.7452   -2.7669    0.0000 C   0  0  0  0  0  0  0  0  0  0  0  0
    4.6901   -2.5137    0.0000 C   0  0  0  0  0  0  0  0  0  0  0  0
    3.0535   -2.0752    0.0000 C   0  0  0  0  0  0  0  0  0  0  0  0
    2.1085   -2.3284    0.0000 C   0  0  0  0  0  0  0  0  0  0  0  0
    1.4168   -1.6367    0.0000 C   0  0  0  0  0  0  0  0  0  0  0  0
    1.6700   -0.6917    0.0000 C   0  0  0  0  0  0  0  0  0  0  0  0
    0.9783    0.0000    0.0000 N   0  0  0  0  0  0  0  0  0  0  0  0
    0.0000    0.0000    0.0000 C   0  0  2  0  0  0  0  0  0  0  0  0
   -0.6917   -0.6917    0.0000 C   0  0  0  0  0  0  0  0  0  0  0  0
   -1.6367   -0.4385    0.0000 C   0  0  0  0  0  0  0  0  0  0  0  0
   -2.3284   -1.1303    0.0000 C   0  0  0  0  0  0  0  0  0  0  0  0
   -2.0752   -2.0752    0.0000 C   0  0  0  0  0  0  0  0  0  0  0  0
   -2.7669   -2.7669    0.0000 C   0  0  0  0  0  0  0  0  0  0  0  0
   -3.7119   -2.5137    0.0000 C   0  0  0  0  0  0  0  0  0  0  0  0
   -3.9651   -1.5688    0.0000 C   0  0  0  0  0  0  0  0  0  0  0  0
   -3.2733   -0.8771    0.0000 C   0  0  0  0  0  0  0  0  0  0  0  0
    0.0000    0.9783    0.0000 C   0  0  0  0  0  0  0  0  0  0  0  0
   -0.5064    2.8681    0.0000 C   0  0  0  0  0  0  0  0  0  0  0  0
   -1.4513    3.1213    0.0000 C   0  0  0  0  0  0  0  0  0  0  0  0
   -1.7045    4.0662    0.0000 C   0  0  0  0  0  0  0  0  0  0  0  0
   -1.0128    4.7580    0.0000 C   0  0  0  0  0  0  0  0  0  0  0  0
   -0.0678    4.5048    0.0000 C   0  0  0  0  0  0  0  0  0  0  0  0
    0.1853    3.5599    0.0000 C   0  0  0  0  0  0  0  0  0  0  0  0
   -0.9449    1.2315    0.0000 C   0  0  0  0  0  0  0  0  0  0  0  0
   -1.6367    0.5397    0.0000 C   0  0  0  0  0  0  0  0  0  0  0  0
   -2.5816    0.7929    0.0000 C   0  0  0  0  0  0  0  0  0  0  0  0
   -2.8348    1.7378    0.0000 C   0  0  0  0  0  0  0  0  0  0  0  0
   -2.1430    2.4296    0.0000 C   0  0  0  0  0  0  0  0  0  0  0  0
   -1.1981    2.1764    0.0000 C   0  0  0  0  0  0  0  0  0  0  0  0
    0.9783    0.9783    0.0000 P   0  0  1  0  0  0  0  0  0  0  0  0
    1.9232    1.2315    0.0000 O   0  0  0  0  0  0  0  0  0  0  0  0
    1.2315    1.9232    0.0000 C   0  0  0  0  0  0  0  0  0  0  0  0
    0.5397    2.6149    0.0000 C   0  0  0  0  0  0  0  0  0  0  0  0
    0.7929    3.5599    0.0000 C   0  0  0  0  0  0  0  0  0  0  0  0
    1.7378    3.8130    0.0000 C   0  0  0  0  0  0  0  0  0  0  0  0
    2.4296    3.1213    0.0000 C   0  0  0  0  0  0  0  0  0  0  0  0
    2.1764    2.1764    0.0000 C   0  0  0  0  0  0  0  0  0  0  0  0
    2.6149   -0.4385    0.0000 C   0  0  0  0  0  0  0  0  0  0  0  0
    3.3067   -1.1303    0.0000 C   0  0  0  0  0  0  0  0  0  0  0  0
  1  2  1  0  0  0  0
  2  3  1  0  0  0  0
  2  4  1  0  0  0  0
  4 40  2  0  0  0  0
  4  5  1  0  0  0  0
  5  6  2  0  0  0  0
  6  7  1  0  0  0  0
  7  8  1  0  0  0  0
  7 39  2  0  0  0  0
  8 31  1  0  0  0  0
  8  9  1  0  0  0  0
  9 10  1  6  0  0  0
  9 18  1  0  0  0  0
 10 11  2  0  0  0  0
 11 12  1  0  0  0  0
 12 17  2  0  0  0  0
 12 13  1  0  0  0  0
 13 14  2  0  0  0  0
 14 15  1  0  0  0  0
 15 16  2  0  0  0  0
 16 17  1  0  0  0  0
 18 19  1  0  0  0  0
 18 25  1  0  0  0  0
 18 31  1  0  0  0  0
 19 24  2  0  0  0  0
 19 20  1  0  0  0  0
 20 21  2  0  0  0  0
 21 22  1  0  0  0  0
 22 23  2  0  0  0  0
 23 24  1  0  0  0  0
 25 30  2  0  0  0  0
 25 26  1  0  0  0  0
 26 27  2  0  0  0  0
 27 28  1  0  0  0  0
 28 29  2  0  0  0  0
 29 30  1  0  0  0  0
 31 32  2  1  0  0  0
 31 33  1  0  0  0  0
 33 38  2  0  0  0  0
 33 34  1  0  0  0  0
 34 35  2  0  0  0  0
 35 36  1  0  0  0  0
 36 37  2  0  0  0  0
 37 38  1  0  0  0  0
 39 40  1  0  0  0  0
M  END
> <NMREDATA_VERSION>
1.1

> <NMREDATA_LEVEL>
0

> <NMREDATA_SOLVENT>
CDCl3

> <NMREDATA_FORMULA>
C37H34NOP

> <NMREDATA_SMILES>
CC(c1ccc(cc1)N1[C@H](/C=C/c2ccccc2)C([P@]1(=O)c1ccccc1)(c1ccccc1)c1ccccc1)C

> <NMREDATA_ASSIGNMENT>
P31, 39.92, 31

> <NMREDATA_1D_31P>
Larmor=162
39.92, L=P31

$$$$
