
 OpenBabel06112616462D

 33 36  0  0  0  0  0  0  0  0999 V2000
   -0.7395    2.2172    0.0000 C   0  0  0  0  0  0  0  0  0  0  0  0
   -0.9418    1.2655    0.0000 F   0  0  0  0  0  0  0  0  0  0  0  0
   -1.0402    3.1425    0.0000 F   0  0  0  0  0  0  0  0  0  0  0  0
   -1.6912    2.4195    0.0000 F   0  0  0  0  0  0  0  0  0  0  0  0
    0.1858    2.5178    0.0000 C   0  0  0  0  0  0  0  0  0  0  0  0
    0.4865    3.4432    0.0000 C   0  0  0  0  0  0  0  0  0  0  0  0
   -0.0854    4.2303    0.0000 F   0  0  0  0  0  0  0  0  0  0  0  0
    1.4595    3.4432    0.0000 O   0  0  0  0  0  0  0  0  0  0  0  0
    1.7601    2.5178    0.0000 C   0  0  0  0  0  0  0  0  0  0  0  0
    2.6855    2.2172    0.0000 C   0  0  0  0  0  0  0  0  0  0  0  0
    3.4085    2.8682    0.0000 C   0  0  0  0  0  0  0  0  0  0  0  0
    4.3339    2.5676    0.0000 C   0  0  0  0  0  0  0  0  0  0  0  0
    4.5362    1.6158    0.0000 C   0  0  0  0  0  0  0  0  0  0  0  0
    5.4615    1.3152    0.0000 N   0  3  0  0  0  0  0  0  0  0  0  0
    5.6638    0.3635    0.0000 O   0  0  0  0  0  0  0  0  0  0  0  0
    6.1846    1.9662    0.0000 O   0  5  0  0  0  0  0  0  0  0  0  0
    3.8131    0.9648    0.0000 C   0  0  0  0  0  0  0  0  0  0  0  0
    2.8878    1.2655    0.0000 C   0  0  0  0  0  0  0  0  0  0  0  0
    0.9730    1.9459    0.0000 C   0  0  0  0  0  0  0  0  0  0  0  0
    0.9730    0.0000    0.0000 P   0  0  0  0  0  0  0  0  0  0  0  0
    1.9459    0.0000    0.0000 O   0  0  0  0  0  0  0  0  0  0  0  0
    0.9730   -0.9730    0.0000 C   0  0  0  0  0  0  0  0  0  0  0  0
    0.1304   -1.4595    0.0000 C   0  0  0  0  0  0  0  0  0  0  0  0
    0.1304   -2.4324    0.0000 C   0  0  0  0  0  0  0  0  0  0  0  0
    0.9730   -2.9189    0.0000 C   0  0  0  0  0  0  0  0  0  0  0  0
    1.8156   -2.4324    0.0000 C   0  0  0  0  0  0  0  0  0  0  0  0
    1.8156   -1.4595    0.0000 C   0  0  0  0  0  0  0  0  0  0  0  0
    0.0000    0.0000    0.0000 C   0  0  0  0  0  0  0  0  0  0  0  0
   -0.4865    0.8426    0.0000 C   0  0  0  0  0  0  0  0  0  0  0  0
   -1.4595    0.8426    0.0000 C   0  0  0  0  0  0  0  0  0  0  0  0
   -1.9459    0.0000    0.0000 C   0  0  0  0  0  0  0  0  0  0  0  0
   -1.4595   -0.8426    0.0000 C   0  0  0  0  0  0  0  0  0  0  0  0
   -0.4865   -0.8426    0.0000 C   0  0  0  0  0  0  0  0  0  0  0  0
  1  2  1  0  0  0  0
  1  3  1  0  0  0  0
  1  4  1  0  0  0  0
  1  5  1  0  0  0  0
  5 19  1  0  0  0  0
  5  6  2  0  0  0  0
  6  7  1  0  0  0  0
  6  8  1  0  0  0  0
  8  9  1  0  0  0  0
  9 10  1  0  0  0  0
  9 19  2  0  0  0  0
 10 18  2  0  0  0  0
 10 11  1  0  0  0  0
 11 12  2  0  0  0  0
 12 13  1  0  0  0  0
 13 14  1  0  0  0  0
 13 17  2  0  0  0  0
 14 15  2  0  0  0  0
 14 16  1  0  0  0  0
 17 18  1  0  0  0  0
 19 20  1  0  0  0  0
 20 21  2  0  0  0  0
 20 22  1  0  0  0  0
 20 28  1  0  0  0  0
 22 27  2  0  0  0  0
 22 23  1  0  0  0  0
 23 24  2  0  0  0  0
 24 25  1  0  0  0  0
 25 26  2  0  0  0  0
 26 27  1  0  0  0  0
 28 33  2  0  0  0  0
 28 29  1  0  0  0  0
 29 30  2  0  0  0  0
 30 31  1  0  0  0  0
 31 32  2  0  0  0  0
 32 33  1  0  0  0  0
M  END
> <NMREDATA_VERSION>
1.1

> <NMREDATA_LEVEL>
0

> <NMREDATA_SOLVENT>
CDCl3

> <NMREDATA_FORMULA>
C23H14F4NO4P

> <NMREDATA_SMILES>
Fc1oc(c(c1C(F)(F)F)P(=O)(c1ccccc1)c1ccccc1)c1ccc(cc1)[N+](=O)[O-]

> <NMREDATA_ASSIGNMENT>
P20, 19.06, 20

> <NMREDATA_1D_31P>
Larmor=162
19.06, L=P20

$$$$
