
 OpenBabel06112616442D

 43 46  0  0  0  0  0  0  0  0999 V2000
   -0.8130    0.4694    0.0000 C   0  0  0  0  0  0  0  0  0  0  0  0
    0.0000    0.0000    0.0000 O   0  0  0  0  0  0  0  0  0  0  0  0
   -0.8130    1.4082    0.0000 C   0  0  0  0  0  0  0  0  0  0  0  0
    0.8130    2.3469    0.0000 C   0  0  0  0  0  0  0  0  0  0  0  0
    0.8130    3.2857    0.0000 C   0  0  0  0  0  0  0  0  0  0  0  0
    0.0000    3.7551    0.0000 C   0  0  0  0  0  0  0  0  0  0  0  0
    0.0000    4.6939    0.0000 C   0  0  0  0  0  0  0  0  0  0  0  0
   -0.8130    5.1633    0.0000 C   0  0  0  0  0  0  0  0  0  0  0  0
   -0.8130    6.1020    0.0000 O   0  0  0  0  0  0  0  0  0  0  0  0
   -1.6260    4.6939    0.0000 O   0  0  0  0  0  0  0  0  0  0  0  0
   -2.4390    5.1633    0.0000 C   0  0  0  0  0  0  0  0  0  0  0  0
    0.8130    5.1633    0.0000 C   0  0  0  0  0  0  0  0  0  0  0  0
    1.6260    4.6939    0.0000 C   0  0  0  0  0  0  0  0  0  0  0  0
    2.4390    5.1633    0.0000 C   0  0  0  0  0  0  0  0  0  0  0  0
    2.4390    6.1020    0.0000 C   0  0  0  0  0  0  0  0  0  0  0  0
    3.2520    6.5714    0.0000 C   0  0  0  0  0  0  0  0  0  0  0  0
    4.0650    6.1020    0.0000 O   0  0  0  0  0  0  0  0  0  0  0  0
    3.2520    7.5102    0.0000 O   0  0  0  0  0  0  0  0  0  0  0  0
    4.0650    7.9796    0.0000 C   0  0  0  0  0  0  0  0  0  0  0  0
    4.0650    8.9184    0.0000 C   0  0  0  0  0  0  0  0  0  0  0  0
    1.6260    3.7551    0.0000 C   0  0  0  0  0  0  0  0  0  0  0  0
    2.4390    3.2857    0.0000 C   0  0  0  0  0  0  0  0  0  0  0  0
    3.2520    3.7551    0.0000 C   0  0  0  0  0  0  0  0  0  0  0  0
    4.0650    3.2857    0.0000 C   0  0  0  0  0  0  0  0  0  0  0  0
    4.0650    2.3469    0.0000 C   0  0  0  0  0  0  0  0  0  0  0  0
    3.2520    1.8776    0.0000 C   0  0  0  0  0  0  0  0  0  0  0  0
    2.4390    2.3469    0.0000 C   0  0  0  0  0  0  0  0  0  0  0  0
    0.8130    1.4082    0.0000 P   0  0  0  0  0  0  0  0  0  0  0  0
   -0.8130    2.3469    0.0000 C   0  0  0  0  0  0  0  0  0  0  0  0
   -1.6260    1.8776    0.0000 C   0  0  0  0  0  0  0  0  0  0  0  0
   -2.4390    2.3469    0.0000 C   0  0  0  0  0  0  0  0  0  0  0  0
   -2.4390    3.2857    0.0000 C   0  0  0  0  0  0  0  0  0  0  0  0
   -1.6260    3.7551    0.0000 C   0  0  0  0  0  0  0  0  0  0  0  0
   -0.8130    3.2857    0.0000 C   0  0  0  0  0  0  0  0  0  0  0  0
    0.8130    0.4694    0.0000 C   0  0  0  0  0  0  0  0  0  0  0  0
    1.6260    0.0000    0.0000 C   0  0  0  0  0  0  0  0  0  0  0  0
    1.6260   -0.9388    0.0000 C   0  0  0  0  0  0  0  0  0  0  0  0
    0.8130   -1.4082    0.0000 C   0  0  0  0  0  0  0  0  0  0  0  0
    0.0000   -0.9388    0.0000 C   0  0  0  0  0  0  0  0  0  0  0  0
    0.0000    0.0000    0.0000 C   0  0  0  0  0  0  0  0  0  0  0  0
   -1.6260    0.0000    0.0000 O   0  0  0  0  0  0  0  0  0  0  0  0
   -2.4390    0.4694    0.0000 C   0  0  0  0  0  0  0  0  0  0  0  0
   -3.2520    0.0000    0.0000 C   0  0  0  0  0  0  0  0  0  0  0  0
  1  2  2  0  0  0  0
  1  3  1  0  0  0  0
  1 41  1  0  0  0  0
  3  4  1  0  0  0  0
  4  5  1  0  0  0  0
  5 21  2  0  0  0  0
  5  6  1  0  0  0  0
  6  7  2  0  0  0  0
  7  8  1  0  0  0  0
  7 12  1  0  0  0  0
  8  9  2  0  0  0  0
  8 10  1  0  0  0  0
 10 11  1  0  0  0  0
 12 13  2  0  0  0  0
 13 14  1  0  0  0  0
 13 21  1  0  0  0  0
 14 15  1  0  0  0  0
 15 16  1  0  0  0  0
 16 17  2  0  0  0  0
 16 18  1  0  0  0  0
 18 19  1  0  0  0  0
 19 20  1  0  0  0  0
 21 22  1  0  0  0  0
 22 27  2  0  0  0  0
 22 23  1  0  0  0  0
 23 24  2  0  0  0  0
 24 25  1  0  0  0  0
 25 26  2  0  0  0  0
 26 27  1  0  0  0  0
 27 28  1  0  0  0  0
 28 29  1  0  0  0  0
 28 35  1  0  0  0  0
 29 34  2  0  0  0  0
 29 30  1  0  0  0  0
 30 31  2  0  0  0  0
 31 32  1  0  0  0  0
 32 33  2  0  0  0  0
 33 34  1  0  0  0  0
 35 40  2  0  0  0  0
 35 36  1  0  0  0  0
 36 37  2  0  0  0  0
 37 38  1  0  0  0  0
 38 39  2  0  0  0  0
 39 40  1  0  0  0  0
 41 42  1  0  0  0  0
 42 43  1  0  0  0  0
M  END
> <NMREDATA_VERSION>
1.1

> <NMREDATA_LEVEL>
0

> <NMREDATA_SOLVENT>
CDCl3

> <NMREDATA_FORMULA>
C36H37O6P

> <NMREDATA_SMILES>
CCOC(=O)CCc1cc(cc(c1c1ccccc1P(c1ccccc1)c1ccccc1)CCC(=O)OCC)C(=O)OC

> <NMREDATA_ASSIGNMENT>
P28, -15.20, 28

> <NMREDATA_1D_31P>
Larmor=162
-15.20, L=P28

$$$$
