
 OpenBabel06112616432D

 26 29  0  0  0  0  0  0  0  0999 V2000
    0.9659   -0.2588    0.0000 C   0  0  0  0  0  0  0  0  0  0  0  0
    1.6730    0.4483    0.0000 C   0  0  0  0  0  0  0  0  0  0  0  0
    1.9319    1.4142    0.0000 C   0  0  0  0  0  0  0  0  0  0  0  0
    0.9659    1.1554    0.0000 C   0  0  0  0  0  0  0  0  0  0  0  0
    2.6390    0.1895    0.0000 C   0  0  0  0  0  0  0  0  0  0  0  0
    1.2247   -1.2247    0.0000 C   0  0  0  0  0  0  0  0  0  0  0  0
    0.5176   -1.9319    0.0000 C   0  0  0  0  0  0  0  0  0  0  0  0
   -0.4483   -1.6730    0.0000 C   0  0  0  0  0  0  0  0  0  0  0  0
   -1.1554   -2.3801    0.0000 S   0  0  0  0  0  0  0  0  0  0  0  0
   -2.1213   -2.1213    0.0000 P   0  0  3  0  0  0  0  0  0  0  0  0
   -2.2518   -1.1299    0.0000 O   0  0  0  0  0  0  0  0  0  0  0  0
   -2.9873   -1.6213    0.0000 O   0  0  0  0  0  0  0  0  0  0  0  0
   -3.8534   -2.1213    0.0000 C   0  0  0  0  0  0  0  0  0  0  0  0
   -4.7194   -1.6213    0.0000 C   0  0  0  0  0  0  0  0  0  0  0  0
   -5.5854   -2.1213    0.0000 C   0  0  0  0  0  0  0  0  0  0  0  0
   -5.5854   -3.1213    0.0000 C   0  0  0  0  0  0  0  0  0  0  0  0
   -4.7194   -3.6213    0.0000 C   0  0  0  0  0  0  0  0  0  0  0  0
   -3.8534   -3.1213    0.0000 C   0  0  0  0  0  0  0  0  0  0  0  0
   -2.9873   -3.6213    0.0000 C   0  0  0  0  0  0  0  0  0  0  0  0
   -2.9873   -4.6213    0.0000 C   0  0  0  0  0  0  0  0  0  0  0  0
   -2.1213   -5.1213    0.0000 C   0  0  0  0  0  0  0  0  0  0  0  0
   -1.2553   -4.6213    0.0000 C   0  0  0  0  0  0  0  0  0  0  0  0
   -1.2553   -3.6213    0.0000 C   0  0  0  0  0  0  0  0  0  0  0  0
   -2.1213   -3.1213    0.0000 C   0  0  0  0  0  0  0  0  0  0  0  0
   -0.7071   -0.7071    0.0000 C   0  0  0  0  0  0  0  0  0  0  0  0
    0.0000    0.0000    0.0000 C   0  0  0  0  0  0  0  0  0  0  0  0
  1 26  2  0  0  0  0
  1  2  1  0  0  0  0
  1  6  1  0  0  0  0
  2  3  1  0  0  0  0
  2  4  1  0  0  0  0
  2  5  1  0  0  0  0
  6  7  2  0  0  0  0
  7  8  1  0  0  0  0
  8  9  1  0  0  0  0
  8 25  2  0  0  0  0
  9 10  1  0  0  0  0
 10 24  1  0  0  0  0
 10 11  2  0  0  0  0
 10 12  1  0  0  0  0
 12 13  1  0  0  0  0
 13 18  2  0  0  0  0
 13 14  1  0  0  0  0
 14 15  2  0  0  0  0
 15 16  1  0  0  0  0
 16 17  2  0  0  0  0
 17 18  1  0  0  0  0
 18 19  1  0  0  0  0
 19 24  2  0  0  0  0
 19 20  1  0  0  0  0
 20 21  2  0  0  0  0
 21 22  1  0  0  0  0
 22 23  2  0  0  0  0
 23 24  1  0  0  0  0
 25 26  1  0  0  0  0
M  END
> <NMREDATA_VERSION>
1.1

> <NMREDATA_LEVEL>
0

> <NMREDATA_SOLVENT>
CDCl3

> <NMREDATA_FORMULA>
C22H21O2PS

> <NMREDATA_SMILES>
CC(c1ccc(cc1)SP1(=O)Oc2ccccc2-c2c1cccc2)(C)C

> <NMREDATA_ASSIGNMENT>
P10, 34.70, 10

> <NMREDATA_1D_31P>
Larmor=202
34.70, L=P10

$$$$
