
 OpenBabel06112616492D

 29 31  0  0  0  0  0  0  0  0999 V2000
    8.3660   -2.0000    0.0000 C   0  0  0  0  0  0  0  0  0  0  0  0
    8.3660   -1.0000    0.0000 C   0  0  0  0  0  0  0  0  0  0  0  0
    9.2321   -0.5000    0.0000 O   0  0  0  0  0  0  0  0  0  0  0  0
    7.5000   -0.5000    0.0000 O   0  5  0  0  0  0  0  0  0  0  0  0
    3.5000   -6.5000    0.0000 C   0  0  0  0  0  0  0  0  0  0  0  0
    2.6340   -6.0000    0.0000 C   0  0  0  0  0  0  0  0  0  0  0  0
    2.6340   -5.0000    0.0000 C   0  0  0  0  0  0  0  0  0  0  0  0
    3.5000   -4.5000    0.0000 C   0  0  0  0  0  0  0  0  0  0  0  0
    3.5000   -3.5000    0.0000 P   0  3  0  0  0  0  0  0  0  0  0  0
    4.5000   -3.5000    0.0000 C   0  0  0  0  0  0  0  0  0  0  0  0
    5.0000   -2.6340    0.0000 C   0  0  0  0  0  0  0  0  0  0  0  0
    6.0000   -2.6340    0.0000 C   0  0  0  0  0  0  0  0  0  0  0  0
    6.5000   -3.5000    0.0000 C   0  0  0  0  0  0  0  0  0  0  0  0
    6.0000   -4.3660    0.0000 C   0  0  0  0  0  0  0  0  0  0  0  0
    5.0000   -4.3660    0.0000 C   0  0  0  0  0  0  0  0  0  0  0  0
    3.5000   -2.5000    0.0000 C   0  0  0  0  0  0  0  0  0  0  0  0
    2.6340   -2.0000    0.0000 C   0  0  0  0  0  0  0  0  0  0  0  0
    2.6340   -1.0000    0.0000 C   0  0  0  0  0  0  0  0  0  0  0  0
    3.5000   -0.5000    0.0000 C   0  0  0  0  0  0  0  0  0  0  0  0
    4.3660   -1.0000    0.0000 C   0  0  0  0  0  0  0  0  0  0  0  0
    4.3660   -2.0000    0.0000 C   0  0  0  0  0  0  0  0  0  0  0  0
    2.5000   -3.5000    0.0000 C   0  0  0  0  0  0  0  0  0  0  0  0
    2.0000   -4.3660    0.0000 C   0  0  0  0  0  0  0  0  0  0  0  0
    1.0000   -4.3660    0.0000 C   0  0  0  0  0  0  0  0  0  0  0  0
    0.5000   -3.5000    0.0000 C   0  0  0  0  0  0  0  0  0  0  0  0
    1.0000   -2.6340    0.0000 C   0  0  0  0  0  0  0  0  0  0  0  0
    2.0000   -2.6340    0.0000 C   0  0  0  0  0  0  0  0  0  0  0  0
    4.3660   -5.0000    0.0000 C   0  0  0  0  0  0  0  0  0  0  0  0
    4.3660   -6.0000    0.0000 C   0  0  0  0  0  0  0  0  0  0  0  0
  1  2  1  0  0  0  0
  2  3  2  0  0  0  0
  2  4  1  0  0  0  0
  5 29  2  0  0  0  0
  5  6  1  0  0  0  0
  6  7  2  0  0  0  0
  7  8  1  0  0  0  0
  8  9  1  0  0  0  0
  8 28  2  0  0  0  0
  9 10  1  0  0  0  0
  9 16  1  0  0  0  0
  9 22  1  0  0  0  0
 10 15  2  0  0  0  0
 10 11  1  0  0  0  0
 11 12  2  0  0  0  0
 12 13  1  0  0  0  0
 13 14  2  0  0  0  0
 14 15  1  0  0  0  0
 16 21  2  0  0  0  0
 16 17  1  0  0  0  0
 17 18  2  0  0  0  0
 18 19  1  0  0  0  0
 19 20  2  0  0  0  0
 20 21  1  0  0  0  0
 22 27  2  0  0  0  0
 22 23  1  0  0  0  0
 23 24  2  0  0  0  0
 24 25  1  0  0  0  0
 25 26  2  0  0  0  0
 26 27  1  0  0  0  0
 28 29  1  0  0  0  0
M  END
> <NMREDATA_VERSION>
1.1

> <NMREDATA_LEVEL>
0

> <NMREDATA_SOLVENT>
CD2Cl2

> <NMREDATA_FORMULA>
C26H23O2P

> <NMREDATA_SMILES>
c1ccc(cc1)[P+](c1ccccc1)(c1ccccc1)c1ccccc1.[O-]C(=O)C

> <NMREDATA_ASSIGNMENT>
P9, 23.70, 9

> <NMREDATA_1D_31P>
Larmor=161
23.70, L=P9

$$$$
