
 OpenBabel06112616452D

 33 37  0  0  0  0  0  0  0  0999 V2000
    9.4338   -5.5942    0.0000 Cl   0  0  0  0  0  0  0  0  0  0  0  0
    8.4655   -5.6960    0.0000 C    0  0  0  0  0  0  0  0  0  0  0  0
    7.9786   -6.5392    0.0000 C    0  0  0  0  0  0  0  0  0  0  0  0
    7.0262   -6.3368    0.0000 C    0  0  0  0  0  0  0  0  0  0  0  0
    6.9244   -5.3684    0.0000 C    0  0  0  0  0  0  0  0  0  0  0  0
    6.0812   -4.8816    0.0000 C    0  0  0  0  0  0  0  0  0  0  0  0
    5.2380   -5.3684    0.0000 C    0  0  0  0  0  0  0  0  0  0  0  0
    4.3947   -4.8816    0.0000 P    0  3  0  0  0  0  0  0  0  0  0  0
    2.4474   -4.8816    0.0000 C    0  0  0  0  0  0  0  0  0  0  0  0
    1.9605   -5.7248    0.0000 C    0  0  0  0  0  0  0  0  0  0  0  0
    0.9868   -5.7248    0.0000 C    0  0  0  0  0  0  0  0  0  0  0  0
    0.5000   -4.8816    0.0000 C    0  0  0  0  0  0  0  0  0  0  0  0
    0.9868   -4.0383    0.0000 C    0  0  0  0  0  0  0  0  0  0  0  0
    1.9605   -4.0383    0.0000 C    0  0  0  0  0  0  0  0  0  0  0  0
    3.9079   -5.7248    0.0000 C    0  0  0  0  0  0  0  0  0  0  0  0
    4.3947   -6.5680    0.0000 C    0  0  0  0  0  0  0  0  0  0  0  0
    3.9079   -7.4113    0.0000 C    0  0  0  0  0  0  0  0  0  0  0  0
    2.9342   -7.4113    0.0000 C    0  0  0  0  0  0  0  0  0  0  0  0
    2.4474   -6.5680    0.0000 C    0  0  0  0  0  0  0  0  0  0  0  0
    2.9342   -5.7248    0.0000 C    0  0  0  0  0  0  0  0  0  0  0  0
    4.3947   -3.9079    0.0000 C    0  0  0  0  0  0  0  0  0  0  0  0
    3.5515   -3.4211    0.0000 C    0  0  0  0  0  0  0  0  0  0  0  0
    3.5515   -2.4474    0.0000 C    0  0  0  0  0  0  0  0  0  0  0  0
    4.3947   -1.9605    0.0000 C    0  0  0  0  0  0  0  0  0  0  0  0
    4.3947   -0.9868    0.0000 C    0  0  0  0  0  0  0  0  0  0  0  0
    5.2380   -0.5000    0.0000 C    0  0  0  0  0  0  0  0  0  0  0  0
    6.0812   -0.9868    0.0000 C    0  0  0  0  0  0  0  0  0  0  0  0
    6.0812   -1.9605    0.0000 C    0  0  0  0  0  0  0  0  0  0  0  0
    5.2380   -2.4474    0.0000 C    0  0  0  0  0  0  0  0  0  0  0  0
    5.2380   -3.4211    0.0000 C    0  0  0  0  0  0  0  0  0  0  0  0
    6.0812   -3.9079    0.0000 O    0  0  0  0  0  0  0  0  0  0  0  0
    7.8139   -4.9724    0.0000 S    0  0  0  0  0  0  0  0  0  0  0  0
   10.4338   -0.5000    0.0000 Br   0  5  0  0  0  0  0  0  0  0  0  0
  1  2  1  0  0  0  0
  2 32  1  0  0  0  0
  2  3  2  0  0  0  0
  3  4  1  0  0  0  0
  4  5  2  0  0  0  0
  5  6  1  0  0  0  0
  5 32  1  0  0  0  0
  6 31  1  0  0  0  0
  6  7  2  0  0  0  0
  7  8  1  0  0  0  0
  8  9  1  0  0  0  0
  8 15  1  0  0  0  0
  8 21  1  0  0  0  0
  9 14  2  0  0  0  0
  9 10  1  0  0  0  0
 10 11  2  0  0  0  0
 11 12  1  0  0  0  0
 12 13  2  0  0  0  0
 13 14  1  0  0  0  0
 15 20  2  0  0  0  0
 15 16  1  0  0  0  0
 16 17  2  0  0  0  0
 17 18  1  0  0  0  0
 18 19  2  0  0  0  0
 19 20  1  0  0  0  0
 21 30  2  0  0  0  0
 21 22  1  0  0  0  0
 22 23  2  0  0  0  0
 23 24  1  0  0  0  0
 24 29  2  0  0  0  0
 24 25  1  0  0  0  0
 25 26  2  0  0  0  0
 26 27  1  0  0  0  0
 27 28  2  0  0  0  0
 28 29  1  0  0  0  0
 29 30  1  0  0  0  0
 30 31  1  0  0  0  0
M  END
> <NMREDATA_VERSION>
1.1

> <NMREDATA_LEVEL>
0

> <NMREDATA_SOLVENT>
CDCl3

> <NMREDATA_FORMULA>
C28H19BrClOPS

> <NMREDATA_SMILES>
Clc1ccc(s1)C1=CP(c2c(O1)c1ccccc1cc2)(c1ccccc1)c1ccccc1.Br

> <NMREDATA_ASSIGNMENT>
P8, -9.92, 8

> <NMREDATA_1D_31P>
Larmor=162
-9.92, L=P8

$$$$
