
 OpenBabel06112616472D

 20 21  0  0  0  0  0  0  0  0999 V2000
   -4.7568   -5.2524    0.0000 C   0  0  0  0  0  0  0  0  0  0  0  0
   -3.9478   -4.6646    0.0000 O   0  0  0  0  0  0  0  0  0  0  0  0
   -4.0523   -3.6701    0.0000 C   0  0  0  0  0  0  0  0  0  0  0  0
   -4.9659   -3.2634    0.0000 C   0  0  0  0  0  0  0  0  0  0  0  0
   -5.0704   -2.2688    0.0000 C   0  0  0  0  0  0  0  0  0  0  0  0
   -4.2614   -1.6810    0.0000 C   0  0  0  0  0  0  0  0  0  0  0  0
   -3.3479   -2.0878    0.0000 C   0  0  0  0  0  0  0  0  0  0  0  0
   -2.5388   -1.5000    0.0000 N   0  0  0  0  0  0  0  0  0  0  0  0
   -2.5388   -0.5000    0.0000 N   0  0  0  0  0  0  0  0  0  0  0  0
   -1.5878   -0.1910    0.0000 N   0  0  0  0  0  0  0  0  0  0  0  0
   -1.0000   -1.0000    0.0000 C   0  0  0  0  0  0  0  0  0  0  0  0
    0.0000   -1.0000    0.0000 P   0  0  0  0  0  0  0  0  0  0  0  0
    0.0000   -2.0000    0.0000 O   0  0  0  0  0  0  0  0  0  0  0  0
    1.0000   -1.0000    0.0000 O   0  0  0  0  0  0  0  0  0  0  0  0
    1.5000   -0.1340    0.0000 C   0  0  0  0  0  0  0  0  0  0  0  0
    0.0000    0.0000    0.0000 O   0  0  0  0  0  0  0  0  0  0  0  0
    0.8660    0.5000    0.0000 C   0  0  0  0  0  0  0  0  0  0  0  0
   -1.5878   -1.8090    0.0000 C   0  0  0  0  0  0  0  0  0  0  0  0
   -1.2788   -2.7601    0.0000 C   0  0  0  0  0  0  0  0  0  0  0  0
   -3.2433   -3.0823    0.0000 C   0  0  0  0  0  0  0  0  0  0  0  0
  1  2  1  0  0  0  0
  2  3  1  0  0  0  0
  3 20  2  0  0  0  0
  3  4  1  0  0  0  0
  4  5  2  0  0  0  0
  5  6  1  0  0  0  0
  6  7  2  0  0  0  0
  7  8  1  0  0  0  0
  7 20  1  0  0  0  0
  8 18  1  0  0  0  0
  8  9  1  0  0  0  0
  9 10  2  0  0  0  0
 10 11  1  0  0  0  0
 11 12  1  0  0  0  0
 11 18  2  0  0  0  0
 12 13  2  0  0  0  0
 12 14  1  0  0  0  0
 12 16  1  0  0  0  0
 14 15  1  0  0  0  0
 16 17  1  0  0  0  0
 18 19  1  0  0  0  0
M  END
> <NMREDATA_VERSION>
1.1

> <NMREDATA_LEVEL>
0

> <NMREDATA_SOLVENT>
CDCl3

> <NMREDATA_FORMULA>
C12H16N3O4P

> <NMREDATA_SMILES>
COc1cccc(c1)n1nnc(c1C)P(=O)(OC)OC

> <NMREDATA_ASSIGNMENT>
P12, 10.20, 12

> <NMREDATA_1D_31P>
Larmor=243
10.20, L=P12

$$$$
