
 OpenBabel06112616432D

 47 53  0  0  0  0  0  0  0  0999 V2000
    0.8292    1.7219    0.0000 O    0  0  0  0  0  0  0  0  0  0  0  0
    0.6802    0.7331    0.0000 P    0  0  0  0  0  0  0  0  0  0  0  0
   -0.1017    1.3565    0.0000 Cl   0  0  0  0  0  0  0  0  0  0  0  0
    1.6774    0.6583    0.0000 O    0  0  0  0  0  0  0  0  0  0  0  0
    2.2407   -0.1679    0.0000 C    0  0  0  0  0  0  0  0  0  0  0  0
    3.2156    0.0546    0.0000 C    0  0  0  0  0  0  0  0  0  0  0  0
    3.5104    1.0102    0.0000 C    0  0  0  0  0  0  0  0  0  0  0  0
    2.8302    1.7432    0.0000 C    0  0  0  0  0  0  0  0  0  0  0  0
    1.8553    1.5207    0.0000 F    0  0  0  0  0  0  0  0  0  0  0  0
    3.1250    2.6988    0.0000 C    0  0  0  0  0  0  0  0  0  0  0  0
    2.4448    3.4319    0.0000 F    0  0  0  0  0  0  0  0  0  0  0  0
    4.0999    2.9213    0.0000 C    0  0  0  0  0  0  0  0  0  0  0  0
    4.3946    3.8769    0.0000 F    0  0  0  0  0  0  0  0  0  0  0  0
    4.7801    2.1883    0.0000 C    0  0  0  0  0  0  0  0  0  0  0  0
    5.7550    2.4108    0.0000 F    0  0  0  0  0  0  0  0  0  0  0  0
    4.4853    1.2327    0.0000 C    0  0  0  0  0  0  0  0  0  0  0  0
    5.1655    0.4996    0.0000 F    0  0  0  0  0  0  0  0  0  0  0  0
    3.8958   -0.6784    0.0000 C    0  0  0  0  0  0  0  0  0  0  0  0
    3.6010   -1.6340    0.0000 C    0  0  0  0  0  0  0  0  0  0  0  0
    4.2812   -2.3671    0.0000 C    0  0  0  0  0  0  0  0  0  0  0  0
    3.9865   -3.3226    0.0000 C    0  0  0  0  0  0  0  0  0  0  0  0
    3.0115   -3.5452    0.0000 C    0  0  0  0  0  0  0  0  0  0  0  0
    2.3314   -2.8121    0.0000 C    0  0  0  0  0  0  0  0  0  0  0  0
    2.6261   -1.8565    0.0000 C    0  0  0  0  0  0  0  0  0  0  0  0
    1.9459   -1.1235    0.0000 C    0  0  0  0  0  0  0  0  0  0  0  0
    1.0151   -1.4888    0.0000 C    0  0  0  0  0  0  0  0  0  0  0  0
    0.1490   -0.9888    0.0000 C    0  0  0  0  0  0  0  0  0  0  0  0
   -0.7170   -1.4888    0.0000 C    0  0  0  0  0  0  0  0  0  0  0  0
   -1.5830   -0.9888    0.0000 C    0  0  0  0  0  0  0  0  0  0  0  0
   -2.4490   -1.4888    0.0000 C    0  0  0  0  0  0  0  0  0  0  0  0
   -2.4490   -2.4888    0.0000 F    0  0  0  0  0  0  0  0  0  0  0  0
   -3.3151   -0.9888    0.0000 C    0  0  0  0  0  0  0  0  0  0  0  0
   -4.1811   -1.4888    0.0000 F    0  0  0  0  0  0  0  0  0  0  0  0
   -3.3151    0.0112    0.0000 C    0  0  0  0  0  0  0  0  0  0  0  0
   -4.1811    0.5112    0.0000 F    0  0  0  0  0  0  0  0  0  0  0  0
   -2.4490    0.5112    0.0000 C    0  0  0  0  0  0  0  0  0  0  0  0
   -2.4490    1.5112    0.0000 F    0  0  0  0  0  0  0  0  0  0  0  0
   -1.5830    0.0112    0.0000 C    0  0  0  0  0  0  0  0  0  0  0  0
   -0.7170    0.5112    0.0000 F    0  0  0  0  0  0  0  0  0  0  0  0
   -0.7170   -2.4888    0.0000 C    0  0  0  0  0  0  0  0  0  0  0  0
    0.1490   -2.9888    0.0000 C    0  0  0  0  0  0  0  0  0  0  0  0
    0.1490   -3.9888    0.0000 C    0  0  0  0  0  0  0  0  0  0  0  0
    1.0151   -4.4888    0.0000 C    0  0  0  0  0  0  0  0  0  0  0  0
    1.8811   -3.9888    0.0000 C    0  0  0  0  0  0  0  0  0  0  0  0
    1.8811   -2.9888    0.0000 C    0  0  0  0  0  0  0  0  0  0  0  0
    1.0151   -2.4888    0.0000 C    0  0  0  0  0  0  0  0  0  0  0  0
    0.0000    0.0000    0.0000 O    0  0  0  0  0  0  0  0  0  0  0  0
  1  2  2  0  0  0  0
  2 47  1  0  0  0  0
  2  3  1  0  0  0  0
  2  4  1  0  0  0  0
  4  5  1  0  0  0  0
  5 25  2  0  0  0  0
  5  6  1  0  0  0  0
  6  7  1  0  0  0  0
  6 18  2  0  0  0  0
  7 16  2  0  0  0  0
  7  8  1  0  0  0  0
  8  9  1  0  0  0  0
  8 10  2  0  0  0  0
 10 11  1  0  0  0  0
 10 12  1  0  0  0  0
 12 13  1  0  0  0  0
 12 14  2  0  0  0  0
 14 15  1  0  0  0  0
 14 16  1  0  0  0  0
 16 17  1  0  0  0  0
 18 19  1  0  0  0  0
 19 24  2  0  0  0  0
 19 20  1  0  0  0  0
 20 21  2  0  0  0  0
 21 22  1  0  0  0  0
 22 23  2  0  0  0  0
 23 24  1  0  0  0  0
 24 25  1  0  0  0  0
 25 26  1  0  0  0  0
 26 46  2  0  0  0  0
 26 27  1  0  0  0  0
 27 28  2  0  0  0  0
 27 47  1  0  0  0  0
 28 29  1  0  0  0  0
 28 40  1  0  0  0  0
 29 38  2  0  0  0  0
 29 30  1  0  0  0  0
 30 31  1  0  0  0  0
 30 32  2  0  0  0  0
 32 33  1  0  0  0  0
 32 34  1  0  0  0  0
 34 35  1  0  0  0  0
 34 36  2  0  0  0  0
 36 37  1  0  0  0  0
 36 38  1  0  0  0  0
 38 39  1  0  0  0  0
 40 41  2  0  0  0  0
 41 46  1  0  0  0  0
 41 42  1  0  0  0  0
 42 43  2  0  0  0  0
 43 44  1  0  0  0  0
 44 45  2  0  0  0  0
 45 46  1  0  0  0  0
M  END
> <NMREDATA_VERSION>
1.1

> <NMREDATA_LEVEL>
0

> <NMREDATA_SOLVENT>
CD2Cl2

> <NMREDATA_FORMULA>
C32H10ClF10O3P

> <NMREDATA_SMILES>
Fc1c(c2cc3ccccc3c3-c4c(OP(=O)(Oc23)Cl)c(cc2c4cccc2)c2c(F)c(F)c(c(c2F)F)F)c(F)c(c(c1F)F)F

> <NMREDATA_ASSIGNMENT>
P2, 8.68, 2

> <NMREDATA_1D_31P>
Larmor=202
8.68, L=P2

$$$$
