
 OpenBabel06112616432D

 28 30  0  0  1  0  0  0  0  0999 V2000
    2.7321    1.0000    0.0000 C   0  0  0  0  0  0  0  0  0  0  0  0
    1.8660    1.5000    0.0000 C   0  0  0  0  0  0  0  0  0  0  0  0
    1.0000    1.0000    0.0000 O   0  0  0  0  0  0  0  0  0  0  0  0
    1.0000    0.0000    0.0000 P   0  0  0  0  0  0  0  0  0  0  0  0
    2.0000    0.0000    0.0000 O   0  0  0  0  0  0  0  0  0  0  0  0
    1.0000   -1.0000    0.0000 O   0  0  0  0  0  0  0  0  0  0  0  0
    0.1340   -1.5000    0.0000 C   0  0  0  0  0  0  0  0  0  0  0  0
    0.1340   -2.5000    0.0000 C   0  0  0  0  0  0  0  0  0  0  0  0
    0.0000    0.0000    0.0000 C   0  0  1  0  0  0  0  0  0  0  0  0
   -0.9659    0.2588    0.0000 C   0  0  0  0  0  0  0  0  0  0  0  0
   -1.6730   -0.4483    0.0000 C   0  0  0  0  0  0  0  0  0  0  0  0
   -2.6390   -0.1895    0.0000 C   0  0  0  0  0  0  0  0  0  0  0  0
   -3.3461   -0.8966    0.0000 C   0  0  0  0  0  0  0  0  0  0  0  0
   -2.8978    0.7765    0.0000 C   0  0  0  0  0  0  0  0  0  0  0  0
   -1.4142   -1.4142    0.0000 C   0  0  0  0  0  0  0  0  0  0  0  0
   -0.4483   -1.6730    0.0000 C   0  0  0  0  0  0  0  0  0  0  0  0
   -0.1895   -2.6390    0.0000 O   0  0  0  0  0  0  0  0  0  0  0  0
    0.2588   -0.9659    0.0000 N   0  0  0  0  0  0  0  0  0  0  0  0
    1.2247   -1.2247    0.0000 S   0  0  0  0  0  0  0  0  0  0  0  0
    1.9319   -1.9319    0.0000 O   0  0  0  0  0  0  0  0  0  0  0  0
    0.9659   -2.1907    0.0000 O   0  0  0  0  0  0  0  0  0  0  0  0
    1.9319   -0.5176    0.0000 O   0  0  0  0  0  0  0  0  0  0  0  0
    1.6730    0.4483    0.0000 C   0  0  0  0  0  0  0  0  0  0  0  0
    2.3801    1.1554    0.0000 C   0  0  0  0  0  0  0  0  0  0  0  0
    2.1213    2.1213    0.0000 C   0  0  0  0  0  0  0  0  0  0  0  0
    1.1554    2.3801    0.0000 C   0  0  0  0  0  0  0  0  0  0  0  0
    0.4483    1.6730    0.0000 C   0  0  0  0  0  0  0  0  0  0  0  0
    0.7071    0.7071    0.0000 C   0  0  0  0  0  0  0  0  0  0  0  0
  1  2  1  0  0  0  0
  2  3  1  0  0  0  0
  3  4  1  0  0  0  0
  4  5  2  0  0  0  0
  4  6  1  0  0  0  0
  6  7  1  0  0  0  0
  7  8  1  0  0  0  0
  9  4  1  6  0  0  0
  9 18  1  0  0  0  0
  9 28  1  0  0  0  0
  9 10  1  0  0  0  0
 10 11  1  0  0  0  0
 11 12  1  0  0  0  0
 11 15  2  0  0  0  0
 12 13  1  0  0  0  0
 12 14  1  0  0  0  0
 15 16  1  0  0  0  0
 16 17  2  0  0  0  0
 16 18  1  0  0  0  0
 18 19  1  0  0  0  0
 19 20  2  0  0  0  0
 19 21  2  0  0  0  0
 19 22  1  0  0  0  0
 22 23  1  0  0  0  0
 23 28  2  0  0  0  0
 23 24  1  0  0  0  0
 24 25  2  0  0  0  0
 25 26  1  0  0  0  0
 26 27  2  0  0  0  0
 27 28  1  0  0  0  0
M  END
> <NMREDATA_VERSION>
1.1

> <NMREDATA_LEVEL>
0

> <NMREDATA_SOLVENT>
CDCl3

> <NMREDATA_FORMULA>
C18H24NO7PS

> <NMREDATA_SMILES>
CCOP(=O)([C@]12CC(=CC(=O)N2S(=O)(=O)Oc2c1cccc2)C(C)C)OCC

> <NMREDATA_ASSIGNMENT>
P4, 17.37, 4

> <NMREDATA_1D_31P>
Larmor=162
17.37, L=P4

$$$$
