
 OpenBabel06112616452D

 39 43  0  0  0  0  0  0  0  0999 V2000
    9.8580   -1.5000    0.0000 O   0  0  0  0  0  0  0  0  0  0  0  0
   10.8580   -1.5000    0.0000 S   0  0  0  0  0  0  0  0  0  0  0  0
   10.8580   -2.5000    0.0000 O   0  0  0  0  0  0  0  0  0  0  0  0
   11.8580   -1.5000    0.0000 C   0  0  0  0  0  0  0  0  0  0  0  0
   12.7240   -1.0000    0.0000 F   0  0  0  0  0  0  0  0  0  0  0  0
   11.8580   -0.5000    0.0000 F   0  0  0  0  0  0  0  0  0  0  0  0
   12.3580   -2.3660    0.0000 F   0  0  0  0  0  0  0  0  0  0  0  0
   10.8580   -0.5000    0.0000 O   0  5  0  0  0  0  0  0  0  0  0  0
    5.4875   -3.4189    0.0000 P   0  3  0  0  0  0  0  0  0  0  0  0
    7.1728   -2.4459    0.0000 C   0  0  0  0  0  0  0  0  0  0  0  0
    7.1728   -1.4730    0.0000 C   0  0  0  0  0  0  0  0  0  0  0  0
    8.0154   -0.9865    0.0000 C   0  0  0  0  0  0  0  0  0  0  0  0
    8.8580   -1.4730    0.0000 C   0  0  0  0  0  0  0  0  0  0  0  0
    8.8580   -2.4459    0.0000 C   0  0  0  0  0  0  0  0  0  0  0  0
    8.0154   -2.9324    0.0000 C   0  0  0  0  0  0  0  0  0  0  0  0
    5.4875   -2.4459    0.0000 C   0  0  0  0  0  0  0  0  0  0  0  0
    4.6449   -1.9595    0.0000 C   0  0  0  0  0  0  0  0  0  0  0  0
    4.6449   -0.9865    0.0000 C   0  0  0  0  0  0  0  0  0  0  0  0
    5.4875   -0.5000    0.0000 C   0  0  0  0  0  0  0  0  0  0  0  0
    6.3301   -0.9865    0.0000 C   0  0  0  0  0  0  0  0  0  0  0  0
    6.3301   -1.9595    0.0000 C   0  0  0  0  0  0  0  0  0  0  0  0
    4.5199   -3.5206    0.0000 C   0  0  0  0  0  0  0  0  0  0  0  0
    4.3176   -4.4723    0.0000 C   0  0  0  0  0  0  0  0  0  0  0  0
    3.3922   -4.7730    0.0000 C   0  0  0  0  0  0  0  0  0  0  0  0
    2.6692   -4.1220    0.0000 C   0  0  0  0  0  0  0  0  0  0  0  0
    2.8715   -3.1702    0.0000 C   0  0  0  0  0  0  0  0  0  0  0  0
    2.1484   -2.5192    0.0000 C   0  0  0  0  0  0  0  0  0  0  0  0
    1.2231   -2.8199    0.0000 C   0  0  0  0  0  0  0  0  0  0  0  0
    0.5000   -2.1688    0.0000 C   0  0  0  0  0  0  0  0  0  0  0  0
    0.7023   -1.2171    0.0000 C   0  0  0  0  0  0  0  0  0  0  0  0
    1.6276   -0.9164    0.0000 C   0  0  0  0  0  0  0  0  0  0  0  0
    2.3507   -1.5675    0.0000 C   0  0  0  0  0  0  0  0  0  0  0  0
    3.7968   -2.8696    0.0000 C   0  0  0  0  0  0  0  0  0  0  0  0
    5.1602   -4.9588    0.0000 C   0  0  0  0  0  0  0  0  0  0  0  0
    5.8833   -4.3078    0.0000 C   0  0  0  0  0  0  0  0  0  0  0  0
    6.8086   -4.6084    0.0000 C   0  0  0  0  0  0  0  0  0  0  0  0
    7.0109   -5.5602    0.0000 C   0  0  0  0  0  0  0  0  0  0  0  0
    6.2879   -6.2112    0.0000 C   0  0  0  0  0  0  0  0  0  0  0  0
    5.3625   -5.9105    0.0000 C   0  0  0  0  0  0  0  0  0  0  0  0
  1  2  2  0  0  0  0
  2  3  2  0  0  0  0
  2  4  1  0  0  0  0
  2  8  1  0  0  0  0
  4  5  1  0  0  0  0
  4  6  1  0  0  0  0
  4  7  1  0  0  0  0
  9 35  1  0  0  0  0
  9 10  1  0  0  0  0
  9 16  1  0  0  0  0
  9 22  1  0  0  0  0
 10 15  2  0  0  0  0
 10 11  1  0  0  0  0
 11 12  2  0  0  0  0
 12 13  1  0  0  0  0
 13 14  2  0  0  0  0
 14 15  1  0  0  0  0
 16 21  2  0  0  0  0
 16 17  1  0  0  0  0
 17 18  2  0  0  0  0
 18 19  1  0  0  0  0
 19 20  2  0  0  0  0
 20 21  1  0  0  0  0
 22 33  2  0  0  0  0
 22 23  1  0  0  0  0
 23 24  2  0  0  0  0
 23 34  1  0  0  0  0
 24 25  1  0  0  0  0
 25 26  2  0  0  0  0
 26 27  1  0  0  0  0
 26 33  1  0  0  0  0
 27 32  2  0  0  0  0
 27 28  1  0  0  0  0
 28 29  2  0  0  0  0
 29 30  1  0  0  0  0
 30 31  2  0  0  0  0
 31 32  1  0  0  0  0
 34 39  2  0  0  0  0
 34 35  1  0  0  0  0
 35 36  2  0  0  0  0
 36 37  1  0  0  0  0
 37 38  2  0  0  0  0
 38 39  1  0  0  0  0
M  END
> <NMREDATA_VERSION>
1.1

> <NMREDATA_LEVEL>
0

> <NMREDATA_SOLVENT>
CDCl3

> <NMREDATA_FORMULA>
C31H22F3O3PS

> <NMREDATA_SMILES>
c1ccc(cc1)c1ccc2-c3c([P+](c2c1)(c1ccccc1)c1ccccc1)cccc3.FC(S(=O)(=O)[O-])(F)F

> <NMREDATA_ASSIGNMENT>
P9, 23.05, 9

> <NMREDATA_1D_31P>
Larmor=162
23.05, L=P9

$$$$
