
 OpenBabel06112616442D

 25 26  0  0  0  0  0  0  0  0999 V2000
    4.9487   -0.9704    0.0000 C   0  0  0  0  0  0  0  0  0  0  0  0
    5.9487   -0.9704    0.0000 O   0  0  0  0  0  0  0  0  0  0  0  0
    4.4487   -0.1044    0.0000 O   0  0  0  0  0  0  0  0  0  0  0  0
    4.9487    0.7617    0.0000 C   0  0  0  0  0  0  0  0  0  0  0  0
    4.9487    1.7617    0.0000 C   0  0  0  0  0  0  0  0  0  0  0  0
    4.0827    1.2617    0.0000 C   0  0  0  0  0  0  0  0  0  0  0  0
    5.9487    0.7617    0.0000 C   0  0  0  0  0  0  0  0  0  0  0  0
    4.4487   -1.8364    0.0000 C   0  0  0  0  0  0  0  0  0  0  0  0
    4.9487   -2.7024    0.0000 C   0  0  0  0  0  0  0  0  0  0  0  0
    4.4487   -3.5685    0.0000 C   0  0  0  0  0  0  0  0  0  0  0  0
    3.4487   -3.5685    0.0000 C   0  0  0  0  0  0  0  0  0  0  0  0
    2.9487   -2.7024    0.0000 C   0  0  0  0  0  0  0  0  0  0  0  0
    1.9706   -2.4945    0.0000 N   0  0  0  0  0  0  0  0  0  0  0  0
    1.8660   -1.5000    0.0000 C   0  0  0  0  0  0  0  0  0  0  0  0
    1.0000   -1.0000    0.0000 N   0  0  0  0  0  0  0  0  0  0  0  0
    1.0000    0.0000    0.0000 P   0  0  0  0  0  0  0  0  0  0  0  0
    2.0000    0.0000    0.0000 O   0  0  0  0  0  0  0  0  0  0  0  0
    1.0000    1.0000    0.0000 O   0  0  0  0  0  0  0  0  0  0  0  0
    0.1340    1.5000    0.0000 C   0  0  0  0  0  0  0  0  0  0  0  0
    0.1340    2.5000    0.0000 C   0  0  0  0  0  0  0  0  0  0  0  0
    0.0000    0.0000    0.0000 O   0  0  0  0  0  0  0  0  0  0  0  0
   -0.5000    0.8660    0.0000 C   0  0  0  0  0  0  0  0  0  0  0  0
   -1.5000    0.8660    0.0000 C   0  0  0  0  0  0  0  0  0  0  0  0
    2.7796   -1.0933    0.0000 N   0  0  0  0  0  0  0  0  0  0  0  0
    3.4487   -1.8364    0.0000 C   0  0  0  0  0  0  0  0  0  0  0  0
  1  2  2  0  0  0  0
  1  3  1  0  0  0  0
  1  8  1  0  0  0  0
  3  4  1  0  0  0  0
  4  5  1  0  0  0  0
  4  6  1  0  0  0  0
  4  7  1  0  0  0  0
  8 25  2  0  0  0  0
  8  9  1  0  0  0  0
  9 10  2  0  0  0  0
 10 11  1  0  0  0  0
 11 12  2  0  0  0  0
 12 25  1  0  0  0  0
 12 13  1  0  0  0  0
 13 14  1  0  0  0  0
 14 15  2  3  0  0  0
 14 24  1  0  0  0  0
 15 16  1  0  0  0  0
 16 17  2  0  0  0  0
 16 18  1  0  0  0  0
 16 21  1  0  0  0  0
 18 19  1  0  0  0  0
 19 20  1  0  0  0  0
 21 22  1  0  0  0  0
 22 23  1  0  0  0  0
 24 25  1  0  0  0  0
M  END
> <NMREDATA_VERSION>
1.1

> <NMREDATA_LEVEL>
0

> <NMREDATA_SOLVENT>
DMSO-d6

> <NMREDATA_FORMULA>
C16H24N3O5P

> <NMREDATA_SMILES>
CCOP(=O)(N=c1[nH]c2c([nH]1)cccc2C(=O)OC(C)(C)C)OCC

> <NMREDATA_ASSIGNMENT>
P16, 9.20, 16

> <NMREDATA_1D_31P>
Larmor=162
9.20, L=P16

$$$$
