
 OpenBabel06112616492D

 38 44  0  0  1  0  0  0  0  0999 V2000
    4.4280    1.1508    0.0000 C   0  0  0  0  0  0  0  0  0  0  0  0
    4.6982    2.0267    0.0000 F   0  0  0  0  0  0  0  0  0  0  0  0
    4.6320    0.2571    0.0000 F   0  0  0  0  0  0  0  0  0  0  0  0
    5.3040    0.8806    0.0000 F   0  0  0  0  0  0  0  0  0  0  0  0
    2.6407    0.7429    0.0000 C   0  0  0  0  0  0  0  0  0  0  0  0
    2.3705   -0.1331    0.0000 C   0  0  0  0  0  0  0  0  0  0  0  0
    1.4768   -0.3371    0.0000 C   0  0  0  0  0  0  0  0  0  0  0  0
    0.8533    0.3349    0.0000 C   0  0  0  0  0  0  0  0  0  0  0  0
    1.1235    1.2108    0.0000 C   0  0  0  0  0  0  0  0  0  0  0  0
    2.0172    1.4148    0.0000 C   0  0  0  0  0  0  0  0  0  0  0  0
    0.6071    1.9682    0.0000 O   0  0  0  0  0  0  0  0  0  0  0  0
   -0.3070    2.0367    0.0000 C   0  0  0  0  0  0  0  0  0  0  0  0
   -0.5772    2.9127    0.0000 C   0  0  0  0  0  0  0  0  0  0  0  0
   -1.4709    3.1166    0.0000 C   0  0  0  0  0  0  0  0  0  0  0  0
   -2.0944    2.4447    0.0000 C   0  0  0  0  0  0  0  0  0  0  0  0
   -1.8242    1.5687    0.0000 C   0  0  0  0  0  0  0  0  0  0  0  0
   -0.9305    1.3648    0.0000 C   0  0  0  0  0  0  0  0  0  0  0  0
   -0.7939    0.4583    0.0000 C   0  0  2  0  0  0  0  0  0  0  0  0
   -1.5877    0.0000    0.0000 C   0  0  0  0  0  0  0  0  0  0  0  0
   -2.3816    0.4583    0.0000 C   0  0  0  0  0  0  0  0  0  0  0  0
   -3.1754    0.0000    0.0000 C   0  0  0  0  0  0  0  0  0  0  0  0
   -3.1754   -0.9167    0.0000 C   0  0  0  0  0  0  0  0  0  0  0  0
   -3.9693   -1.3750    0.0000 C   0  0  0  0  0  0  0  0  0  0  0  0
   -3.9693   -2.2917    0.0000 C   0  0  0  0  0  0  0  0  0  0  0  0
   -3.1754   -2.7500    0.0000 C   0  0  0  0  0  0  0  0  0  0  0  0
   -2.3816   -2.2917    0.0000 C   0  0  0  0  0  0  0  0  0  0  0  0
   -2.3816   -1.3750    0.0000 C   0  0  0  0  0  0  0  0  0  0  0  0
   -1.5877   -0.9167    0.0000 C   0  0  0  0  0  0  0  0  0  0  0  0
   -0.7939   -1.3750    0.0000 C   0  0  0  0  0  0  0  0  0  0  0  0
    0.0000   -0.9167    0.0000 P   0  0  2  0  0  0  0  0  0  0  0  0
    0.4583   -1.7105    0.0000 O   0  0  0  0  0  0  0  0  0  0  0  0
    3.6667   -0.9167    0.0000 C   0  0  0  0  0  0  0  0  0  0  0  0
    4.1250   -0.1228    0.0000 C   0  0  0  0  0  0  0  0  0  0  0  0
    5.0417   -0.1228    0.0000 C   0  0  0  0  0  0  0  0  0  0  0  0
    5.5000   -0.9167    0.0000 C   0  0  0  0  0  0  0  0  0  0  0  0
    5.0417   -1.7105    0.0000 C   0  0  0  0  0  0  0  0  0  0  0  0
    4.1250   -1.7105    0.0000 C   0  0  0  0  0  0  0  0  0  0  0  0
    0.0000    0.0000    0.0000 N   0  0  0  0  0  0  0  0  0  0  0  0
  1  2  1  0  0  0  0
  1  3  1  0  0  0  0
  1  4  1  0  0  0  0
  1  5  1  0  0  0  0
  5 10  2  0  0  0  0
  5  6  1  0  0  0  0
  6  7  2  0  0  0  0
  7  8  1  0  0  0  0
  8 38  1  0  0  0  0
  8  9  2  0  0  0  0
  9 10  1  0  0  0  0
  9 11  1  0  0  0  0
 11 12  1  0  0  0  0
 12 17  2  0  0  0  0
 12 13  1  0  0  0  0
 13 14  2  0  0  0  0
 14 15  1  0  0  0  0
 15 16  2  0  0  0  0
 16 17  1  0  0  0  0
 18 17  1  1  0  0  0
 18 19  1  0  0  0  0
 18 38  1  0  0  0  0
 19 28  2  0  0  0  0
 19 20  1  0  0  0  0
 20 21  2  0  0  0  0
 21 22  1  0  0  0  0
 22 27  2  0  0  0  0
 22 23  1  0  0  0  0
 23 24  2  0  0  0  0
 24 25  1  0  0  0  0
 25 26  2  0  0  0  0
 26 27  1  0  0  0  0
 27 28  1  0  0  0  0
 28 29  1  0  0  0  0
 29 30  1  0  0  0  0
 30 31  2  6  0  0  0
 30 32  1  0  0  0  0
 30 38  1  0  0  0  0
 32 37  2  0  0  0  0
 32 33  1  0  0  0  0
 33 34  2  0  0  0  0
 34 35  1  0  0  0  0
 35 36  2  0  0  0  0
 36 37  1  0  0  0  0
M  END
> <NMREDATA_VERSION>
1.1

> <NMREDATA_LEVEL>
0

> <NMREDATA_SOLVENT>
CDCl3

> <NMREDATA_FORMULA>
C31H21F3NO2P

> <NMREDATA_SMILES>
FC(c1ccc2c(c1)Oc1ccccc1[C@H]1N2[P@](=O)(Cc2c1ccc1c2cccc1)c1ccccc1)(F)F

> <NMREDATA_ASSIGNMENT>
P30, 25.30, 30

> <NMREDATA_1D_31P>
Larmor=162
25.30, L=P30

$$$$
