
 OpenBabel06112616452D

 57 60  0  0  1  0  0  0  0  0999 V2000
   13.6244   -2.0000    0.0000 N   0  3  0  0  0  0  0  0  0  0  0  0
   12.7583   -2.5000    0.0000 C   0  0  0  0  0  0  0  0  0  0  0  0
   11.8923   -2.0000    0.0000 C   0  0  0  0  0  0  0  0  0  0  0  0
   14.4904   -2.5000    0.0000 C   0  0  0  0  0  0  0  0  0  0  0  0
   15.3564   -2.0000    0.0000 C   0  0  0  0  0  0  0  0  0  0  0  0
   13.6244   -1.0000    0.0000 C   0  0  0  0  0  0  0  0  0  0  0  0
   14.4904   -0.5000    0.0000 C   0  0  0  0  0  0  0  0  0  0  0  0
   10.8923   -6.5000    0.0000 C   0  0  0  0  0  0  0  0  0  0  0  0
   10.0263   -7.0000    0.0000 C   0  0  0  0  0  0  0  0  0  0  0  0
    9.1603   -6.5000    0.0000 C   0  0  0  0  0  0  0  0  0  0  0  0
    9.1603   -5.5000    0.0000 C   0  0  0  0  0  0  0  0  0  0  0  0
    8.2942   -5.0000    0.0000 C   0  0  0  0  0  0  0  0  0  0  0  0
    7.4282   -5.5000    0.0000 O   0  0  0  0  0  0  0  0  0  0  0  0
    6.5622   -5.0000    0.0000 C   0  0  0  0  0  0  0  0  0  0  0  0
    5.6962   -5.5000    0.0000 C   0  0  1  0  0  0  0  0  0  0  0  0
    5.6962   -6.5000    0.0000 O   0  0  0  0  0  0  0  0  0  0  0  0
    6.5622   -7.0000    0.0000 C   0  0  0  0  0  0  0  0  0  0  0  0
    6.5622   -8.0000    0.0000 C   0  0  0  0  0  0  0  0  0  0  0  0
    5.6962   -8.5000    0.0000 C   0  0  0  0  0  0  0  0  0  0  0  0
    5.6962   -9.5000    0.0000 C   0  0  0  0  0  0  0  0  0  0  0  0
    6.5622  -10.0000    0.0000 C   0  0  0  0  0  0  0  0  0  0  0  0
    7.4282   -9.5000    0.0000 C   0  0  0  0  0  0  0  0  0  0  0  0
    7.4282   -8.5000    0.0000 C   0  0  0  0  0  0  0  0  0  0  0  0
    4.8301   -5.0000    0.0000 C   0  0  1  0  0  0  0  0  0  0  0  0
    3.9641   -5.5000    0.0000 O   0  0  0  0  0  0  0  0  0  0  0  0
    3.0981   -5.0000    0.0000 C   0  0  0  0  0  0  0  0  0  0  0  0
    2.2321   -5.5000    0.0000 C   0  0  0  0  0  0  0  0  0  0  0  0
    1.3660   -5.0000    0.0000 C   0  0  0  0  0  0  0  0  0  0  0  0
    0.5000   -5.5000    0.0000 C   0  0  0  0  0  0  0  0  0  0  0  0
    0.5000   -6.5000    0.0000 C   0  0  0  0  0  0  0  0  0  0  0  0
    1.3660   -7.0000    0.0000 C   0  0  0  0  0  0  0  0  0  0  0  0
    2.2321   -6.5000    0.0000 C   0  0  0  0  0  0  0  0  0  0  0  0
    4.8301   -4.0000    0.0000 C   0  0  2  0  0  0  0  0  0  0  0  0
    3.9641   -3.5000    0.0000 O   0  0  0  0  0  0  0  0  0  0  0  0
    3.0981   -4.0000    0.0000 C   0  0  0  0  0  0  0  0  0  0  0  0
    2.2321   -3.5000    0.0000 C   0  0  0  0  0  0  0  0  0  0  0  0
    2.2321   -2.5000    0.0000 C   0  0  0  0  0  0  0  0  0  0  0  0
    1.3660   -2.0000    0.0000 C   0  0  0  0  0  0  0  0  0  0  0  0
    0.5000   -2.5000    0.0000 C   0  0  0  0  0  0  0  0  0  0  0  0
    0.5000   -3.5000    0.0000 C   0  0  0  0  0  0  0  0  0  0  0  0
    1.3660   -4.0000    0.0000 C   0  0  0  0  0  0  0  0  0  0  0  0
    5.6962   -3.5000    0.0000 C   0  0  1  0  0  0  0  0  0  0  0  0
    6.5622   -4.0000    0.0000 O   0  0  0  0  0  0  0  0  0  0  0  0
    7.4282   -3.5000    0.0000 C   0  0  0  0  0  0  0  0  0  0  0  0
    7.4282   -2.5000    0.0000 C   0  0  0  0  0  0  0  0  0  0  0  0
    8.2942   -2.0000    0.0000 C   0  0  0  0  0  0  0  0  0  0  0  0
    8.2942   -1.0000    0.0000 C   0  0  0  0  0  0  0  0  0  0  0  0
    7.4282   -0.5000    0.0000 C   0  0  0  0  0  0  0  0  0  0  0  0
    6.5622   -1.0000    0.0000 C   0  0  0  0  0  0  0  0  0  0  0  0
    6.5622   -2.0000    0.0000 C   0  0  0  0  0  0  0  0  0  0  0  0
    5.6962   -2.5000    0.0000 C   0  0  0  0  0  0  0  0  0  0  0  0
    4.8301   -2.0000    0.0000 O   0  0  0  0  0  0  0  0  0  0  0  0
    4.8301   -1.0000    0.0000 P   0  0  3  0  0  0  0  0  0  0  0  0
    3.9641   -0.5000    0.0000 O   0  0  0  0  0  0  0  0  0  0  0  0
    5.6962   -0.5000    0.0000 O   0  5  0  0  0  0  0  0  0  0  0  0
   10.0263   -5.0000    0.0000 C   0  0  0  0  0  0  0  0  0  0  0  0
   10.8923   -5.5000    0.0000 C   0  0  0  0  0  0  0  0  0  0  0  0
  1  2  1  0  0  0  0
  1  4  1  0  0  0  0
  1  6  1  0  0  0  0
  2  3  1  0  0  0  0
  4  5  1  0  0  0  0
  6  7  1  0  0  0  0
  8 57  2  0  0  0  0
  8  9  1  0  0  0  0
  9 10  2  0  0  0  0
 10 11  1  0  0  0  0
 11 12  1  0  0  0  0
 11 56  2  0  0  0  0
 12 13  1  0  0  0  0
 13 14  1  0  0  0  0
 15 14  1  1  0  0  0
 15 16  1  0  0  0  0
 15 24  1  0  0  0  0
 16 17  1  0  0  0  0
 17 18  1  0  0  0  0
 18 23  2  0  0  0  0
 18 19  1  0  0  0  0
 19 20  2  0  0  0  0
 20 21  1  0  0  0  0
 21 22  2  0  0  0  0
 22 23  1  0  0  0  0
 24 25  1  1  0  0  0
 24 33  1  0  0  0  0
 25 26  1  0  0  0  0
 26 27  1  0  0  0  0
 27 32  2  0  0  0  0
 27 28  1  0  0  0  0
 28 29  2  0  0  0  0
 29 30  1  0  0  0  0
 30 31  2  0  0  0  0
 31 32  1  0  0  0  0
 33 34  1  6  0  0  0
 33 42  1  0  0  0  0
 34 35  1  0  0  0  0
 35 36  1  0  0  0  0
 36 41  2  0  0  0  0
 36 37  1  0  0  0  0
 37 38  2  0  0  0  0
 38 39  1  0  0  0  0
 39 40  2  0  0  0  0
 40 41  1  0  0  0  0
 42 43  1  0  0  0  0
 42 51  1  6  0  0  0
 43 44  1  0  0  0  0
 44 45  1  0  0  0  0
 45 50  2  0  0  0  0
 45 46  1  0  0  0  0
 46 47  2  0  0  0  0
 47 48  1  0  0  0  0
 48 49  2  0  0  0  0
 49 50  1  0  0  0  0
 51 52  1  0  0  0  0
 52 53  1  0  0  0  0
 53 54  2  0  0  0  0
 53 55  1  0  0  0  0
 56 57  1  0  0  0  0
M  END
> <NMREDATA_VERSION>
1.1

> <NMREDATA_LEVEL>
0

> <NMREDATA_SOLVENT>
CDCl3

> <NMREDATA_FORMULA>
C47H58NO8P

> <NMREDATA_SMILES>
[O-]P(=O)OC[C@@H]([C@H]([C@@H]([C@H](OCc1ccccc1)COCc1ccccc1)OCc1ccccc1)OCc1ccccc1)OCc1ccccc1.CC[NH+](CC)CC

> <NMREDATA_ASSIGNMENT>
P53, 4.76, 53

> <NMREDATA_1D_31P>
Larmor=162
4.76, L=P53

$$$$
