
 OpenBabel06112616442D

 22 23  0  0  0  0  0  0  0  0999 V2000
   -1.0000    0.7321    0.0000 C   0  0  0  0  0  0  0  0  0  0  0  0
   -1.5000   -0.1340    0.0000 C   0  0  0  0  0  0  0  0  0  0  0  0
   -1.0000   -1.0000    0.0000 O   0  0  0  0  0  0  0  0  0  0  0  0
    0.0000   -1.0000    0.0000 P   0  0  0  0  0  0  0  0  0  0  0  0
    0.0000   -2.0000    0.0000 O   0  0  0  0  0  0  0  0  0  0  0  0
   -0.8660   -2.5000    0.0000 C   0  0  0  0  0  0  0  0  0  0  0  0
   -0.8660   -3.5000    0.0000 C   0  0  0  0  0  0  0  0  0  0  0  0
    1.0000   -1.0000    0.0000 C   0  0  0  0  0  0  0  0  0  0  0  0
    1.5000   -1.8660    0.0000 C   0  0  0  0  0  0  0  0  0  0  0  0
    2.4945   -1.9706    0.0000 N   0  0  0  0  0  0  0  0  0  0  0  0
    2.7024   -2.9487    0.0000 C   0  0  0  0  0  0  0  0  0  0  0  0
    3.6160   -3.3554    0.0000 C   0  0  0  0  0  0  0  0  0  0  0  0
    4.4250   -2.7677    0.0000 C   0  0  0  0  0  0  0  0  0  0  0  0
    5.3385   -3.1744    0.0000 C   0  0  0  0  0  0  0  0  0  0  0  0
    5.4431   -4.1689    0.0000 C   0  0  0  0  0  0  0  0  0  0  0  0
    4.6341   -4.7567    0.0000 C   0  0  0  0  0  0  0  0  0  0  0  0
    4.7386   -5.7512    0.0000 O   0  0  0  0  0  0  0  0  0  0  0  0
    5.6521   -6.1580    0.0000 C   0  0  0  0  0  0  0  0  0  0  0  0
    3.7205   -4.3500    0.0000 C   0  0  0  0  0  0  0  0  0  0  0  0
    1.8364   -3.4487    0.0000 O   0  0  0  0  0  0  0  0  0  0  0  0
    1.0933   -2.7796    0.0000 C   0  0  0  0  0  0  0  0  0  0  0  0
    0.0000    0.0000    0.0000 O   0  0  0  0  0  0  0  0  0  0  0  0
  1  2  1  0  0  0  0
  2  3  1  0  0  0  0
  3  4  1  0  0  0  0
  4  5  1  0  0  0  0
  4  8  1  0  0  0  0
  4 22  2  0  0  0  0
  5  6  1  0  0  0  0
  6  7  1  0  0  0  0
  8  9  1  0  0  0  0
  9 21  2  0  0  0  0
  9 10  1  0  0  0  0
 10 11  2  0  0  0  0
 11 12  1  0  0  0  0
 11 20  1  0  0  0  0
 12 19  2  0  0  0  0
 12 13  1  0  0  0  0
 13 14  2  0  0  0  0
 14 15  1  0  0  0  0
 15 16  2  0  0  0  0
 16 17  1  0  0  0  0
 16 19  1  0  0  0  0
 17 18  1  0  0  0  0
 20 21  1  0  0  0  0
M  END
> <NMREDATA_VERSION>
1.1

> <NMREDATA_LEVEL>
0

> <NMREDATA_SOLVENT>
CDCl3

> <NMREDATA_FORMULA>
C15H20NO5P

> <NMREDATA_SMILES>
CCOP(=O)(Cc1coc(n1)c1cccc(c1)OC)OCC

> <NMREDATA_ASSIGNMENT>
P4, 24.80, 4

> <NMREDATA_1D_31P>
Larmor=162
24.80, L=P4

$$$$
