
 OpenBabel06112616472D

 33 38  0  0  0  0  0  0  0  0999 V2000
    0.0000    1.0000    0.0000 O   0  0  0  0  0  0  0  0  0  0  0  0
    0.0000    0.0000    0.0000 P   0  0  0  0  0  0  0  0  0  0  0  0
   -1.0000    0.0000    0.0000 O   0  0  0  0  0  0  0  0  0  0  0  0
   -1.5000    0.8660    0.0000 C   0  0  0  0  0  0  0  0  0  0  0  0
   -1.0000    1.7321    0.0000 C   0  0  0  0  0  0  0  0  0  0  0  0
    0.0000   -1.0000    0.0000 O   0  0  0  0  0  0  0  0  0  0  0  0
   -0.8660   -1.5000    0.0000 C   0  0  0  0  0  0  0  0  0  0  0  0
   -0.8660   -2.5000    0.0000 C   0  0  0  0  0  0  0  0  0  0  0  0
    1.0000    0.0000    0.0000 C   0  0  0  0  0  0  0  0  0  0  0  0
    1.5000    0.8660    0.0000 C   0  0  0  0  0  0  0  0  0  0  0  0
    2.5000    0.8660    0.0000 C   0  0  0  0  0  0  0  0  0  0  0  0
    3.0000    0.0000    0.0000 C   0  0  0  0  0  0  0  0  0  0  0  0
    2.5000   -0.8660    0.0000 C   0  0  0  0  0  0  0  0  0  0  0  0
    1.5000   -0.8660    0.0000 C   0  0  0  0  0  0  0  0  0  0  0  0
    1.1910   -1.8171    0.0000 C   0  0  0  0  0  0  0  0  0  0  0  0
    0.2774   -2.2238    0.0000 C   0  0  0  0  0  0  0  0  0  0  0  0
    0.1729   -3.2183    0.0000 C   0  0  0  0  0  0  0  0  0  0  0  0
    0.9819   -3.8061    0.0000 C   0  0  0  0  0  0  0  0  0  0  0  0
    1.8955   -3.3994    0.0000 C   0  0  0  0  0  0  0  0  0  0  0  0
    2.0000   -2.4049    0.0000 C   0  0  0  0  0  0  0  0  0  0  0  0
    2.8090   -1.8171    0.0000 C   0  0  0  0  0  0  0  0  0  0  0  0
    3.6180   -1.2293    0.0000 C   0  0  0  0  0  0  0  0  0  0  0  0
    3.7226   -0.2348    0.0000 C   0  0  0  0  0  0  0  0  0  0  0  0
    4.6361    0.1720    0.0000 C   0  0  0  0  0  0  0  0  0  0  0  0
    5.4451   -0.4158    0.0000 C   0  0  0  0  0  0  0  0  0  0  0  0
    5.3406   -1.4103    0.0000 C   0  0  0  0  0  0  0  0  0  0  0  0
    4.4271   -1.8171    0.0000 C   0  0  0  0  0  0  0  0  0  0  0  0
    4.1180   -2.7681    0.0000 C   0  0  0  0  0  0  0  0  0  0  0  0
    4.6180   -3.6342    0.0000 C   0  0  0  0  0  0  0  0  0  0  0  0
    4.1180   -4.5002    0.0000 C   0  0  0  0  0  0  0  0  0  0  0  0
    3.1180   -4.5002    0.0000 C   0  0  0  0  0  0  0  0  0  0  0  0
    2.6180   -3.6342    0.0000 C   0  0  0  0  0  0  0  0  0  0  0  0
    3.1180   -2.7681    0.0000 C   0  0  0  0  0  0  0  0  0  0  0  0
  1  2  2  0  0  0  0
  2  3  1  0  0  0  0
  2  6  1  0  0  0  0
  2  9  1  0  0  0  0
  3  4  1  0  0  0  0
  4  5  1  0  0  0  0
  6  7  1  0  0  0  0
  7  8  1  0  0  0  0
  9 14  2  0  0  0  0
  9 10  1  0  0  0  0
 10 11  2  0  0  0  0
 11 12  1  0  0  0  0
 12 13  2  0  0  0  0
 13 21  1  0  0  0  0
 13 14  1  0  0  0  0
 14 15  1  0  0  0  0
 15 20  2  0  0  0  0
 15 16  1  0  0  0  0
 16 17  2  0  0  0  0
 17 18  1  0  0  0  0
 18 19  2  0  0  0  0
 19 20  1  0  0  0  0
 20 21  1  0  0  0  0
 21 33  1  0  0  0  0
 21 22  1  0  0  0  0
 22 27  2  0  0  0  0
 22 23  1  0  0  0  0
 23 24  2  0  0  0  0
 24 25  1  0  0  0  0
 25 26  2  0  0  0  0
 26 27  1  0  0  0  0
 27 28  1  0  0  0  0
 28 33  2  0  0  0  0
 28 29  1  0  0  0  0
 29 30  2  0  0  0  0
 30 31  1  0  0  0  0
 31 32  2  0  0  0  0
 32 33  1  0  0  0  0
M  END
> <NMREDATA_VERSION>
1.1

> <NMREDATA_LEVEL>
0

> <NMREDATA_SOLVENT>
CDCl3

> <NMREDATA_FORMULA>
C29H25O3P

> <NMREDATA_SMILES>
CCOP(=O)(c1cccc2c1-c1ccccc1C12c2ccccc2-c2c1cccc2)OCC

> <NMREDATA_ASSIGNMENT>
P2, 18.38, 2

> <NMREDATA_1D_31P>
Larmor=162
18.38, L=P2

$$$$
