
 OpenBabel06112616462D

 30 32  0  0  1  0  0  0  0  0999 V2000
   -0.7099   -2.9091    0.0000 C   0  0  0  0  0  0  0  0  0  0  0  0
   -0.7099   -3.8788    0.0000 F   0  0  0  0  0  0  0  0  0  0  0  0
   -1.1947   -2.0693    0.0000 F   0  0  0  0  0  0  0  0  0  0  0  0
   -1.6796   -2.9091    0.0000 F   0  0  0  0  0  0  0  0  0  0  0  0
    0.1299   -2.4242    0.0000 C   0  0  0  0  0  0  0  0  0  0  0  0
    0.1299   -1.4545    0.0000 C   0  0  0  0  0  0  0  0  0  0  0  0
    0.9697   -0.9697    0.0000 C   0  0  0  0  0  0  0  0  0  0  0  0
    0.9697    0.0000    0.0000 P   0  0  2  0  0  0  0  0  0  0  0  0
    2.9091    0.0000    0.0000 O   0  0  0  0  0  0  0  0  0  0  0  0
    3.3939    0.8398    0.0000 C   0  0  1  0  0  0  0  0  0  0  0  0
    4.3636    0.8398    0.0000 C   0  0  2  0  0  0  0  0  0  0  0  0
    4.8485    0.0000    0.0000 C   0  0  0  0  0  0  0  0  0  0  0  0
    5.8182    0.0000    0.0000 C   0  0  0  0  0  0  0  0  0  0  0  0
    4.3636   -0.8398    0.0000 C   0  0  0  0  0  0  0  0  0  0  0  0
    4.8485    1.6796    0.0000 C   0  0  0  0  0  0  0  0  0  0  0  0
    4.3636    2.5193    0.0000 C   0  0  0  0  0  0  0  0  0  0  0  0
    3.3939    2.5193    0.0000 C   0  0  1  0  0  0  0  0  0  0  0  0
    2.9091    3.3591    0.0000 C   0  0  0  0  0  0  0  0  0  0  0  0
    2.9091    1.6796    0.0000 C   0  0  0  0  0  0  0  0  0  0  0  0
    0.9697    0.9697    0.0000 C   0  0  0  0  0  0  0  0  0  0  0  0
    0.1299    1.4545    0.0000 C   0  0  0  0  0  0  0  0  0  0  0  0
    0.1299    2.4242    0.0000 C   0  0  0  0  0  0  0  0  0  0  0  0
    0.9697    2.9091    0.0000 C   0  0  0  0  0  0  0  0  0  0  0  0
    1.8095    2.4242    0.0000 C   0  0  0  0  0  0  0  0  0  0  0  0
    1.8095    1.4545    0.0000 C   0  0  0  0  0  0  0  0  0  0  0  0
    0.0000    0.0000    0.0000 O   0  0  0  0  0  0  0  0  0  0  0  0
    1.8095   -1.4545    0.0000 C   0  0  0  0  0  0  0  0  0  0  0  0
    2.6493   -0.9697    0.0000 O   0  0  0  0  0  0  0  0  0  0  0  0
    1.8095   -2.4242    0.0000 C   0  0  0  0  0  0  0  0  0  0  0  0
    0.9697   -2.9091    0.0000 C   0  0  0  0  0  0  0  0  0  0  0  0
  1  2  1  0  0  0  0
  1  3  1  0  0  0  0
  1  4  1  0  0  0  0
  1  5  1  0  0  0  0
  5 30  2  0  0  0  0
  5  6  1  0  0  0  0
  6  7  2  0  0  0  0
  7  8  1  0  0  0  0
  7 27  1  0  0  0  0
  8  9  1  0  0  0  0
  8 20  1  0  0  0  0
  8 26  2  6  0  0  0
 10  9  1  6  0  0  0
 10 11  1  0  0  0  0
 10 19  1  0  0  0  0
 11 12  1  1  0  0  0
 11 15  1  0  0  0  0
 12 13  1  0  0  0  0
 12 14  1  0  0  0  0
 15 16  1  0  0  0  0
 16 17  1  0  0  0  0
 17 18  1  6  0  0  0
 17 19  1  0  0  0  0
 20 25  2  0  0  0  0
 20 21  1  0  0  0  0
 21 22  2  0  0  0  0
 22 23  1  0  0  0  0
 23 24  2  0  0  0  0
 24 25  1  0  0  0  0
 27 28  1  0  0  0  0
 27 29  2  0  0  0  0
 29 30  1  0  0  0  0
M  END
> <NMREDATA_VERSION>
1.1

> <NMREDATA_LEVEL>
0

> <NMREDATA_SOLVENT>
CDCl3

> <NMREDATA_FORMULA>
C23H28F3O3P

> <NMREDATA_SMILES>
C[C@@H]1CC[C@H]([C@@H](C1)O[P@@](=O)(c1cc(ccc1O)C(F)(F)F)c1ccccc1)C(C)C

> <NMREDATA_ASSIGNMENT>
P8, 35.11, 8

> <NMREDATA_1D_31P>
Larmor=160
35.11, L=P8

$$$$
