
 OpenBabel06112616482D

 39 43  0  0  1  0  0  0  0  0999 V2000
   -0.3979    2.4987    0.0000 C   0  0  0  0  0  0  0  0  0  0  0  0
    0.0004    3.3930    0.0000 O   0  0  0  0  0  0  0  0  0  0  0  0
    0.9795    3.3929    0.0000 C   0  0  0  0  0  0  0  0  0  0  0  0
    1.4691    4.2406    0.0000 C   0  0  0  0  0  0  0  0  0  0  0  0
    2.4488    4.2405    0.0000 C   0  0  0  0  0  0  0  0  0  0  0  0
    2.9382    3.3926    0.0000 C   0  0  0  0  0  0  0  0  0  0  0  0
    2.4486    2.5443    0.0000 C   0  0  0  0  0  0  0  0  0  0  0  0
    1.4689    2.5445    0.0000 C   0  0  0  0  0  0  0  0  0  0  0  0
    1.4687    0.8483    0.0000 C   0  0  0  0  0  0  0  0  0  0  0  0
    0.9790    0.0000    0.0000 C   0  0  0  0  0  0  0  0  0  0  0  0
    0.0000    0.0000    0.0000 P   0  0  0  0  0  0  0  0  0  0  0  0
    0.3025    0.9311    0.0000 O   0  0  0  0  0  0  0  0  0  0  0  0
   -0.9311    0.3025    0.0000 C   0  0  0  0  0  0  0  0  0  0  0  0
   -1.6587   -0.3526    0.0000 C   0  0  0  0  0  0  0  0  0  0  0  0
   -2.5898   -0.0500    0.0000 C   0  0  0  0  0  0  0  0  0  0  0  0
   -2.7933    0.9076    0.0000 C   0  0  0  0  0  0  0  0  0  0  0  0
   -2.0658    1.5627    0.0000 C   0  0  0  0  0  0  0  0  0  0  0  0
   -1.1347    1.2602    0.0000 C   0  0  0  0  0  0  0  0  0  0  0  0
   -0.3025   -0.9311    0.0000 C   0  0  0  0  0  0  0  0  0  0  0  0
    0.3526   -1.6587    0.0000 C   0  0  0  0  0  0  0  0  0  0  0  0
    0.0500   -2.5898    0.0000 C   0  0  0  0  0  0  0  0  0  0  0  0
   -0.9076   -2.7933    0.0000 C   0  0  0  0  0  0  0  0  0  0  0  0
   -1.5627   -2.0658    0.0000 C   0  0  0  0  0  0  0  0  0  0  0  0
   -0.5204   -1.9562    0.0000 C   0  0  0  0  0  0  0  0  0  0  0  0
    1.4685   -0.8479    0.0000 C   0  0  0  0  0  0  0  0  0  0  0  0
    2.4481   -0.8480    0.0000 C   0  0  0  0  0  0  0  0  0  0  0  0
    2.9375   -1.6960    0.0000 C   0  0  0  0  0  0  0  0  0  0  0  0
    2.6348   -2.6270    0.0000 O   0  0  0  0  0  0  0  0  0  0  0  0
    3.8952   -1.4926    0.0000 O   0  0  0  0  0  0  0  0  0  0  0  0
    4.5502   -2.2202    0.0000 C   0  0  0  0  0  0  0  0  0  0  0  0
    3.4272   -0.8482    0.0000 C   0  0  0  0  0  0  0  0  0  0  0  0
    3.6306   -1.8058    0.0000 O   0  0  0  0  0  0  0  0  0  0  0  0
    4.1548   -0.1931    0.0000 O   0  0  0  0  0  0  0  0  0  0  0  0
    5.0859   -0.4958    0.0000 C   0  0  0  0  0  0  0  0  0  0  0  0
    2.9378   -0.0003    0.0000 C   0  0  0  0  0  0  0  0  0  0  0  0
    2.4483    0.8482    0.0000 C   0  0  3  0  0  0  0  0  0  0  0  0
    2.9380    1.6964    0.0000 C   0  0  0  0  0  0  0  0  0  0  0  0
    3.9380    1.6964    0.0000 C   0  0  0  0  0  0  0  0  0  0  0  0
    3.4380    2.5625    0.0000 C   0  0  0  0  0  0  0  0  0  0  0  0
  1  2  1  0  0  0  0
  2  3  1  0  0  0  0
  3  8  2  0  0  0  0
  3  4  1  0  0  0  0
  4  5  2  0  0  0  0
  5  6  1  0  0  0  0
  6  7  2  0  0  0  0
  7 37  1  0  0  0  0
  7  8  1  0  0  0  0
  8  9  1  0  0  0  0
  9 36  1  0  0  0  0
  9 10  2  0  0  0  0
 10 11  1  0  0  0  0
 10 25  1  0  0  0  0
 11 12  2  0  0  0  0
 11 13  1  0  0  0  0
 11 19  1  0  0  0  0
 13 18  2  0  0  0  0
 13 14  1  0  0  0  0
 14 15  2  0  0  0  0
 15 16  1  0  0  0  0
 16 17  2  0  0  0  0
 17 18  1  0  0  0  0
 19 24  2  0  0  0  0
 19 20  1  0  0  0  0
 20 21  2  0  0  0  0
 21 22  1  0  0  0  0
 22 23  2  0  0  0  0
 23 24  1  0  0  0  0
 25 26  1  0  0  0  0
 26 27  1  0  0  0  0
 26 31  1  0  0  0  0
 26 35  1  0  0  0  0
 27 28  2  0  0  0  0
 27 29  1  0  0  0  0
 29 30  1  0  0  0  0
 31 32  2  0  0  0  0
 31 33  1  0  0  0  0
 33 34  1  0  0  0  0
 35 36  1  0  0  0  0
 36 37  1  0  0  0  0
 37 38  1  0  0  0  0
 37 39  1  0  0  0  0
M  END
> <NMREDATA_VERSION>
1.1

> <NMREDATA_LEVEL>
0

> <NMREDATA_SOLVENT>
CDCl3

> <NMREDATA_FORMULA>
C32H33O6P

> <NMREDATA_SMILES>
COC(=O)C1(CC(=C2C(C1)C(C)(C)c1c2c(OC)ccc1)P(=O)(c1ccccc1)c1ccccc1)C(=O)OC

> <NMREDATA_ASSIGNMENT>
P11, 29.16, 11

> <NMREDATA_1D_31P>
Larmor=162
29.16, L=P11

$$$$
