
 OpenBabel06112616472D

 32 35  0  0  0  0  0  0  0  0999 V2000
    6.1486   -6.6804    0.0000 C   0  0  0  0  0  0  0  0  0  0  0  0
    5.6757   -5.8612    0.0000 C   0  0  0  0  0  0  0  0  0  0  0  0
    5.2027   -5.0420    0.0000 C   0  0  0  0  0  0  0  0  0  0  0  0
    4.2568   -5.0420    0.0000 O   0  0  0  0  0  0  0  0  0  0  0  0
    3.7838   -4.2228    0.0000 C   0  0  0  0  0  0  0  0  0  0  0  0
    4.2568   -3.4036    0.0000 C   0  0  0  0  0  0  0  0  0  0  0  0
    3.7838   -2.5844    0.0000 C   0  0  0  0  0  0  0  0  0  0  0  0
    4.2568   -1.7652    0.0000 C   0  0  0  0  0  0  0  0  0  0  0  0
    2.8378   -2.5844    0.0000 C   0  0  0  0  0  0  0  0  0  0  0  0
    1.8919   -0.9459    0.0000 N   0  0  0  0  0  0  0  0  0  0  0  0
    0.0000   -0.9459    0.0000 P   0  0  0  0  0  0  0  0  0  0  0  0
    0.0000   -1.8919    0.0000 C   0  0  0  0  0  0  0  0  0  0  0  0
   -0.8192   -2.3649    0.0000 C   0  0  0  0  0  0  0  0  0  0  0  0
   -0.8192   -3.3108    0.0000 C   0  0  0  0  0  0  0  0  0  0  0  0
    0.0000   -3.7838    0.0000 C   0  0  0  0  0  0  0  0  0  0  0  0
    0.8192   -3.3108    0.0000 C   0  0  0  0  0  0  0  0  0  0  0  0
    0.8192   -2.3649    0.0000 C   0  0  0  0  0  0  0  0  0  0  0  0
   -0.9459   -0.9459    0.0000 C   0  0  0  0  0  0  0  0  0  0  0  0
   -1.4189   -0.1267    0.0000 C   0  0  0  0  0  0  0  0  0  0  0  0
   -2.3649   -0.1267    0.0000 C   0  0  0  0  0  0  0  0  0  0  0  0
   -2.8378   -0.9459    0.0000 C   0  0  0  0  0  0  0  0  0  0  0  0
   -2.3649   -1.7652    0.0000 C   0  0  0  0  0  0  0  0  0  0  0  0
   -1.4189   -1.7652    0.0000 C   0  0  0  0  0  0  0  0  0  0  0  0
    0.0000    0.0000    0.0000 C   0  0  0  0  0  0  0  0  0  0  0  0
    0.8192    0.4730    0.0000 C   0  0  0  0  0  0  0  0  0  0  0  0
    0.8192    1.4189    0.0000 C   0  0  0  0  0  0  0  0  0  0  0  0
    0.0000    1.8919    0.0000 C   0  0  0  0  0  0  0  0  0  0  0  0
   -0.8192    1.4189    0.0000 C   0  0  0  0  0  0  0  0  0  0  0  0
   -0.8192    0.4730    0.0000 C   0  0  0  0  0  0  0  0  0  0  0  0
    2.3649   -3.4036    0.0000 C   0  0  0  0  0  0  0  0  0  0  0  0
    1.4189   -3.4036    0.0000 C   0  0  0  0  0  0  0  0  0  0  0  0
    2.8378   -4.2228    0.0000 C   0  0  0  0  0  0  0  0  0  0  0  0
  1  2  3  0  0  0  0
  2  3  1  0  0  0  0
  3  4  1  0  0  0  0
  4  5  1  0  0  0  0
  5 32  2  0  0  0  0
  5  6  1  0  0  0  0
  6  7  2  0  0  0  0
  7  8  1  0  0  0  0
  7  9  1  0  0  0  0
  9 10  1  0  0  0  0
  9 30  2  0  0  0  0
 10 11  2  0  0  0  0
 11 12  1  0  0  0  0
 11 18  1  0  0  0  0
 11 24  1  0  0  0  0
 12 17  2  0  0  0  0
 12 13  1  0  0  0  0
 13 14  2  0  0  0  0
 14 15  1  0  0  0  0
 15 16  2  0  0  0  0
 16 17  1  0  0  0  0
 18 23  2  0  0  0  0
 18 19  1  0  0  0  0
 19 20  2  0  0  0  0
 20 21  1  0  0  0  0
 21 22  2  0  0  0  0
 22 23  1  0  0  0  0
 24 29  2  0  0  0  0
 24 25  1  0  0  0  0
 25 26  2  0  0  0  0
 26 27  1  0  0  0  0
 27 28  2  0  0  0  0
 28 29  1  0  0  0  0
 30 31  1  0  0  0  0
 30 32  1  0  0  0  0
M  END
> <NMREDATA_VERSION>
1.1

> <NMREDATA_LEVEL>
0

> <NMREDATA_SOLVENT>
CD2Cl2

> <NMREDATA_FORMULA>
C29H26NOP

> <NMREDATA_SMILES>
C#CCOc1cc(C)c(c(c1)C)N=P(c1ccccc1)(c1ccccc1)c1ccccc1

> <NMREDATA_ASSIGNMENT>
P11, -7.43, 11

> <NMREDATA_1D_31P>
Larmor=162
-7.43, L=P11

$$$$
