
 OpenBabel06112616452D

 34 37  0  0  0  0  0  0  0  0999 V2000
    7.4654   -1.5000    0.0000 O    0  0  0  0  0  0  0  0  0  0  0  0
    8.4654   -1.5000    0.0000 S    0  0  0  0  0  0  0  0  0  0  0  0
    8.4654   -2.5000    0.0000 O    0  0  0  0  0  0  0  0  0  0  0  0
    9.4654   -1.5000    0.0000 C    0  0  0  0  0  0  0  0  0  0  0  0
   10.3314   -1.0000    0.0000 F    0  0  0  0  0  0  0  0  0  0  0  0
    9.4654   -0.5000    0.0000 F    0  0  0  0  0  0  0  0  0  0  0  0
    9.9654   -2.3660    0.0000 F    0  0  0  0  0  0  0  0  0  0  0  0
    8.4654   -0.5000    0.0000 O    0  5  0  0  0  0  0  0  0  0  0  0
    1.3175   -0.5000    0.0000 Br   0  0  0  0  0  0  0  0  0  0  0  0
    1.3178   -1.4902    0.0000 C    0  0  0  0  0  0  0  0  0  0  0  0
    2.1352   -1.9619    0.0000 C    0  0  0  0  0  0  0  0  0  0  0  0
    2.1356   -2.9061    0.0000 C    0  0  0  0  0  0  0  0  0  0  0  0
    1.3179   -3.3785    0.0000 C    0  0  0  0  0  0  0  0  0  0  0  0
    0.5001   -2.9063    0.0000 C    0  0  0  0  0  0  0  0  0  0  0  0
    0.5000   -1.9625    0.0000 C    0  0  0  0  0  0  0  0  0  0  0  0
    2.1357   -4.7944    0.0000 C    0  0  0  0  0  0  0  0  0  0  0  0
    2.9535   -4.3220    0.0000 C    0  0  0  0  0  0  0  0  0  0  0  0
    3.7712   -4.7941    0.0000 C    0  0  0  0  0  0  0  0  0  0  0  0
    3.7713   -5.7379    0.0000 C    0  0  0  0  0  0  0  0  0  0  0  0
    2.9536   -6.2103    0.0000 C    0  0  0  0  0  0  0  0  0  0  0  0
    2.1361   -5.7386    0.0000 C    0  0  0  0  0  0  0  0  0  0  0  0
    2.9531   -3.3778    0.0000 P    0  3  0  0  0  0  0  0  0  0  0  0
    3.7703   -2.9056    0.0000 C    0  0  0  0  0  0  0  0  0  0  0  0
    3.3861   -2.0435    0.0000 C    0  0  0  0  0  0  0  0  0  0  0  0
    3.9406   -1.2798    0.0000 C    0  0  0  0  0  0  0  0  0  0  0  0
    4.8793   -1.3782    0.0000 C    0  0  0  0  0  0  0  0  0  0  0  0
    5.2635   -2.2402    0.0000 C    0  0  0  0  0  0  0  0  0  0  0  0
    4.7090   -3.0040    0.0000 C    0  0  0  0  0  0  0  0  0  0  0  0
    4.5881   -4.3212    0.0000 C    0  0  0  0  0  0  0  0  0  0  0  0
    5.1426   -3.5575    0.0000 C    0  0  0  0  0  0  0  0  0  0  0  0
    6.0813   -3.6559    0.0000 C    0  0  0  0  0  0  0  0  0  0  0  0
    6.4654   -4.5180    0.0000 C    0  0  0  0  0  0  0  0  0  0  0  0
    5.9108   -5.2817    0.0000 C    0  0  0  0  0  0  0  0  0  0  0  0
    4.9722   -5.1833    0.0000 C    0  0  0  0  0  0  0  0  0  0  0  0
  1  2  2  0  0  0  0
  2  3  2  0  0  0  0
  2  4  1  0  0  0  0
  2  8  1  0  0  0  0
  4  5  1  0  0  0  0
  4  6  1  0  0  0  0
  4  7  1  0  0  0  0
  9 10  1  0  0  0  0
 10 15  2  0  0  0  0
 10 11  1  0  0  0  0
 11 12  2  0  0  0  0
 12 22  1  0  0  0  0
 12 13  1  0  0  0  0
 13 14  2  0  0  0  0
 13 16  1  0  0  0  0
 14 15  1  0  0  0  0
 16 21  2  0  0  0  0
 16 17  1  0  0  0  0
 17 18  2  0  0  0  0
 17 22  1  0  0  0  0
 18 19  1  0  0  0  0
 19 20  2  0  0  0  0
 20 21  1  0  0  0  0
 22 23  1  0  0  0  0
 22 29  1  0  0  0  0
 23 28  2  0  0  0  0
 23 24  1  0  0  0  0
 24 25  2  0  0  0  0
 25 26  1  0  0  0  0
 26 27  2  0  0  0  0
 27 28  1  0  0  0  0
 29 34  2  0  0  0  0
 29 30  1  0  0  0  0
 30 31  2  0  0  0  0
 31 32  1  0  0  0  0
 32 33  2  0  0  0  0
 33 34  1  0  0  0  0
M  END
> <NMREDATA_VERSION>
1.1

> <NMREDATA_LEVEL>
0

> <NMREDATA_SOLVENT>
CDCl3

> <NMREDATA_FORMULA>
C25H17BrF3O3PS

> <NMREDATA_SMILES>
FC(S(=O)(=O)O)(F)F.Brc1ccc2-c3c(P(c2c1)(c1ccccc1)c1ccccc1)cccc3

> <NMREDATA_ASSIGNMENT>
P22, 23.32, 22

> <NMREDATA_1D_31P>
Larmor=162
23.32, L=P22

$$$$
