
 OpenBabel06112616462D

 15 17  0  0  1  0  0  0  0  0999 V2000
    0.9337    0.9337    0.0000 O   0  0  0  0  0  0  0  0  0  0  0  0
    0.9337    0.0000    0.0000 P   0  0  0  0  0  0  0  0  0  0  0  0
    1.8674    0.0000    0.0000 O   0  5  0  0  0  0  0  0  0  0  0  0
    0.9337   -0.9337    0.0000 O   0  5  0  0  0  0  0  0  0  0  0  0
    0.0000    0.0000    0.0000 O   0  0  0  0  0  0  0  0  0  0  0  0
   -0.4668   -0.8086    0.0000 C   0  0  3  0  0  0  0  0  0  0  0  0
   -1.3771   -0.1392    0.0000 C   0  0  0  0  0  0  0  0  0  0  0  0
   -2.3475   -0.5646    0.0000 C   0  0  3  0  0  0  0  0  0  0  0  0
   -2.4641   -1.6174    0.0000 C   0  0  0  0  0  0  0  0  0  0  0  0
   -1.6114   -2.2444    0.0000 C   0  0  3  0  0  0  0  0  0  0  0  0
   -0.6393   -2.2338    0.0000 C   0  0  0  0  0  0  0  0  0  0  0  0
   -0.3557   -1.3711    0.0000 C   0  0  3  0  0  0  0  0  0  0  0  0
   -1.2944   -0.6808    0.0000 C   0  0  0  0  0  0  0  0  0  0  0  0
    0.4638   -0.7337    0.0000 C   0  0  0  0  0  0  0  0  0  0  0  0
   -0.9041   -1.9992    0.0000 C   0  0  0  0  0  0  0  0  0  0  0  0
  1  2  2  0  0  0  0
  2  3  1  0  0  0  0
  2  4  1  0  0  0  0
  2  5  1  0  0  0  0
  5  6  1  0  0  0  0
  6 14  1  0  0  0  0
  6 15  1  0  0  0  0
  6  7  1  0  0  0  0
  7  8  1  0  0  0  0
  8 13  1  0  0  0  0
  8  9  1  0  0  0  0
  9 10  1  0  0  0  0
 10 11  1  0  0  0  0
 10 15  1  0  0  0  0
 11 12  1  0  0  0  0
 12 13  1  0  0  0  0
 12 14  1  0  0  0  0
M  END
> <NMREDATA_VERSION>
1.1

> <NMREDATA_LEVEL>
0

> <NMREDATA_SOLVENT>
CD3OD

> <NMREDATA_FORMULA>
C10H15O4P

> <NMREDATA_SMILES>
[O-]P(=O)(OC12CC3CC(C2)CC(C1)C3)[O-]

> <NMREDATA_ASSIGNMENT>
P2, -3.40, 2

> <NMREDATA_1D_31P>
Larmor=243
-3.40, L=P2

$$$$
