
 OpenBabel06112616462D

 36 39  0  0  1  0  0  0  0  0999 V2000
   -0.7321   -4.0000    0.0000 C   0  0  0  0  0  0  0  0  0  0  0  0
    0.1340   -4.5000    0.0000 C   0  0  0  0  0  0  0  0  0  0  0  0
    1.0000   -4.0000    0.0000 C   0  0  0  0  0  0  0  0  0  0  0  0
    1.0000   -3.0000    0.0000 C   0  0  0  0  0  0  0  0  0  0  0  0
    1.8660   -2.5000    0.0000 C   0  0  0  0  0  0  0  0  0  0  0  0
    1.8660   -1.5000    0.0000 C   0  0  1  0  0  0  0  0  0  0  0  0
    1.0000   -1.0000    0.0000 N   0  0  0  0  0  0  0  0  0  0  0  0
    1.0000    0.0000    0.0000 P   0  0  0  0  0  0  0  0  0  0  0  0
    2.0000    0.0000    0.0000 S   0  0  0  0  0  0  0  0  0  0  0  0
    1.0000    1.0000    0.0000 C   0  0  0  0  0  0  0  0  0  0  0  0
    0.1340    1.5000    0.0000 C   0  0  0  0  0  0  0  0  0  0  0  0
    0.1340    2.5000    0.0000 C   0  0  0  0  0  0  0  0  0  0  0  0
    1.0000    3.0000    0.0000 C   0  0  0  0  0  0  0  0  0  0  0  0
    1.8660    2.5000    0.0000 C   0  0  0  0  0  0  0  0  0  0  0  0
    1.8660    1.5000    0.0000 C   0  0  0  0  0  0  0  0  0  0  0  0
    0.0000    0.0000    0.0000 C   0  0  0  0  0  0  0  0  0  0  0  0
   -0.5000   -0.8660    0.0000 C   0  0  0  0  0  0  0  0  0  0  0  0
   -1.5000   -0.8660    0.0000 C   0  0  0  0  0  0  0  0  0  0  0  0
   -2.0000    0.0000    0.0000 C   0  0  0  0  0  0  0  0  0  0  0  0
   -1.5000    0.8660    0.0000 C   0  0  0  0  0  0  0  0  0  0  0  0
   -0.5000    0.8660    0.0000 C   0  0  0  0  0  0  0  0  0  0  0  0
    2.7321   -1.0000    0.0000 C   0  0  2  0  0  0  0  0  0  0  0  0
    2.7321    0.0000    0.0000 N   0  0  0  0  0  0  0  0  0  0  0  0
    3.5981    0.5000    0.0000 N   0  3  0  0  0  0  0  0  0  0  0  0
    4.4641    1.0000    0.0000 N   0  5  0  0  0  0  0  0  0  0  0  0
    3.5981   -1.5000    0.0000 C   0  0  0  0  0  0  0  0  0  0  0  0
    4.4641   -1.0000    0.0000 O   0  0  0  0  0  0  0  0  0  0  0  0
    3.5981   -2.5000    0.0000 N   0  0  0  0  0  0  0  0  0  0  0  0
    2.7891   -3.0878    0.0000 C   0  0  0  0  0  0  0  0  0  0  0  0
    3.0981   -4.0388    0.0000 C   0  0  0  0  0  0  0  0  0  0  0  0
    4.0981   -4.0388    0.0000 C   0  0  0  0  0  0  0  0  0  0  0  0
    4.7672   -4.7820    0.0000 C   0  0  0  0  0  0  0  0  0  0  0  0
    5.7454   -4.5741    0.0000 C   0  0  0  0  0  0  0  0  0  0  0  0
    6.0544   -3.6230    0.0000 C   0  0  0  0  0  0  0  0  0  0  0  0
    5.3852   -2.8799    0.0000 N   0  0  0  0  0  0  0  0  0  0  0  0
    4.4071   -3.0878    0.0000 C   0  0  0  0  0  0  0  0  0  0  0  0
  1  2  1  0  0  0  0
  2  3  1  0  0  0  0
  3  4  1  0  0  0  0
  4  5  2  0  0  0  0
  6  5  1  1  0  0  0
  6  7  1  0  0  0  0
  6 22  1  0  0  0  0
  7  8  1  0  0  0  0
  8  9  2  0  0  0  0
  8 10  1  0  0  0  0
  8 16  1  0  0  0  0
 10 15  1  0  0  0  0
 10 11  2  0  0  0  0
 11 12  1  0  0  0  0
 12 13  2  0  0  0  0
 13 14  1  0  0  0  0
 14 15  2  0  0  0  0
 16 21  1  0  0  0  0
 16 17  2  0  0  0  0
 17 18  1  0  0  0  0
 18 19  2  0  0  0  0
 19 20  1  0  0  0  0
 20 21  2  0  0  0  0
 22 23  1  6  0  0  0
 22 26  1  0  0  0  0
 23 24  2  0  0  0  0
 24 25  2  0  0  0  0
 26 27  2  0  0  0  0
 26 28  1  0  0  0  0
 28 36  1  0  0  0  0
 28 29  1  0  0  0  0
 29 30  1  0  0  0  0
 30 31  1  0  0  0  0
 31 36  1  0  0  0  0
 31 32  2  0  0  0  0
 32 33  1  0  0  0  0
 33 34  2  0  0  0  0
 34 35  1  0  0  0  0
 35 36  2  0  0  0  0
M  END
> <NMREDATA_VERSION>
1.1

> <NMREDATA_LEVEL>
0

> <NMREDATA_SOLVENT>
CDCl3

> <NMREDATA_FORMULA>
C27H29N6OPS

> <NMREDATA_SMILES>
CCC/C=C/[C@H]([C@@H](C(=O)N1CCc2c1nccc2)N=[N+]=[N-])NP(=S)(c1ccccc1)c1ccccc1

> <NMREDATA_ASSIGNMENT>
P8, 57.60, 8

> <NMREDATA_1D_31P>
Larmor=162
57.60, L=P8

$$$$
