
 OpenBabel06112616482D

 32 33  0  0  0  0  0  0  0  0999 V2000
    6.9543   -6.3689    0.0000 C    0  0  0  0  0  0  0  0  0  0  0  0
    7.8014   -5.8798    0.0000 C    0  0  0  0  0  0  0  0  0  0  0  0
    7.8014   -4.9017    0.0000 C    0  0  0  0  0  0  0  0  0  0  0  0
    6.9543   -4.4126    0.0000 C    0  0  0  0  0  0  0  0  0  0  0  0
    6.9543   -3.4344    0.0000 P    0  3  0  0  0  0  0  0  0  0  0  0
    7.9325   -3.4344    0.0000 C    0  0  0  0  0  0  0  0  0  0  0  0
    8.4215   -2.5873    0.0000 C    0  0  0  0  0  0  0  0  0  0  0  0
    7.9325   -1.7402    0.0000 C    0  0  0  0  0  0  0  0  0  0  0  0
    8.4215   -0.8931    0.0000 C    0  0  0  0  0  0  0  0  0  0  0  0
    6.9543   -2.4563    0.0000 C    0  0  0  0  0  0  0  0  0  0  0  0
    6.1072   -1.9672    0.0000 C    0  0  0  0  0  0  0  0  0  0  0  0
    6.1072   -0.9891    0.0000 C    0  0  0  0  0  0  0  0  0  0  0  0
    5.2601   -0.5000    0.0000 C    0  0  0  0  0  0  0  0  0  0  0  0
    5.9762   -3.4344    0.0000 C    0  0  0  0  0  0  0  0  0  0  0  0
    5.4871   -4.2815    0.0000 C    0  0  0  0  0  0  0  0  0  0  0  0
    4.5089   -4.2815    0.0000 C    0  0  0  0  0  0  0  0  0  0  0  0
    4.0199   -5.1286    0.0000 C    0  0  0  0  0  0  0  0  0  0  0  0
    3.0417   -5.1286    0.0000 C    0  0  0  0  0  0  0  0  0  0  0  0
    3.0417   -6.1068    0.0000 B    0  0  0  0  0  0  0  0  0  0  0  0
    2.1946   -6.5959    0.0000 C    0  0  0  0  0  0  0  0  0  0  0  0
    1.3471   -6.1068    0.0000 C    0  0  0  0  0  0  0  0  0  0  0  0
    0.5000   -6.5959    0.0000 C    0  0  0  0  0  0  0  0  0  0  0  0
    0.5000   -7.5747    0.0000 C    0  0  0  0  0  0  0  0  0  0  0  0
    1.3471   -8.0638    0.0000 C    0  0  0  0  0  0  0  0  0  0  0  0
    2.1946   -7.5747    0.0000 C    0  0  0  0  0  0  0  0  0  0  0  0
    3.8893   -7.5747    0.0000 C    0  0  0  0  0  0  0  0  0  0  0  0
    4.7369   -8.0638    0.0000 C    0  0  0  0  0  0  0  0  0  0  0  0
    5.5839   -7.5747    0.0000 C    0  0  0  0  0  0  0  0  0  0  0  0
    5.5839   -6.5959    0.0000 C    0  0  0  0  0  0  0  0  0  0  0  0
    4.7369   -6.1068    0.0000 C    0  0  0  0  0  0  0  0  0  0  0  0
    3.8893   -6.5959    0.0000 C    0  0  0  0  0  0  0  0  0  0  0  0
    9.4215   -0.5000    0.0000 Br   0  5  0  0  0  0  0  0  0  0  0  0
  1  2  1  0  0  0  0
  2  3  1  0  0  0  0
  3  4  1  0  0  0  0
  4  5  1  0  0  0  0
  5  6  1  0  0  0  0
  5 10  1  0  0  0  0
  5 14  1  0  0  0  0
  6  7  1  0  0  0  0
  7  8  1  0  0  0  0
  8  9  1  0  0  0  0
 10 11  1  0  0  0  0
 11 12  1  0  0  0  0
 12 13  1  0  0  0  0
 14 15  1  0  0  0  0
 15 16  1  0  0  0  0
 16 17  1  0  0  0  0
 17 18  1  0  0  0  0
 18 19  1  0  0  0  0
 19 31  1  0  0  0  0
 19 20  1  0  0  0  0
 20 25  2  0  0  0  0
 20 21  1  0  0  0  0
 21 22  2  0  0  0  0
 22 23  1  0  0  0  0
 23 24  2  0  0  0  0
 24 25  1  0  0  0  0
 25 26  1  0  0  0  0
 26 31  2  0  0  0  0
 26 27  1  0  0  0  0
 27 28  2  0  0  0  0
 28 29  1  0  0  0  0
 29 30  2  0  0  0  0
 30 31  1  0  0  0  0
M  END
> <NMREDATA_VERSION>
1.1

> <NMREDATA_LEVEL>
0

> <NMREDATA_SOLVENT>
CDCl3

> <NMREDATA_FORMULA>
C29H45BBrP

> <NMREDATA_SMILES>
CCCCP(CCCC)(CCCC)CCCCCB1c2ccccc2-c2c1cccc2.Br

> <NMREDATA_ASSIGNMENT>
P5, 32.60, 5

> <NMREDATA_1D_31P>
Larmor=162
32.60, L=P5

$$$$
