
 OpenBabel06112616432D

 34 36  0  0  0  0  0  0  0  0999 V2000
   -3.8919   -0.9730    0.0000 C   0  0  0  0  0  0  0  0  0  0  0  0
   -4.8649   -0.9730    0.0000 O   0  0  0  0  0  0  0  0  0  0  0  0
   -5.3514   -0.1304    0.0000 C   0  0  0  0  0  0  0  0  0  0  0  0
   -6.1940    0.3561    0.0000 F   0  0  0  0  0  0  0  0  0  0  0  0
   -6.1940   -0.6168    0.0000 F   0  0  0  0  0  0  0  0  0  0  0  0
   -4.8649    0.7123    0.0000 F   0  0  0  0  0  0  0  0  0  0  0  0
   -3.4054   -0.1304    0.0000 C   0  0  0  0  0  0  0  0  0  0  0  0
   -2.4324   -0.1304    0.0000 C   0  0  0  0  0  0  0  0  0  0  0  0
   -1.9459   -0.9730    0.0000 C   0  0  0  0  0  0  0  0  0  0  0  0
    0.0000   -0.9730    0.0000 P   0  0  0  0  0  0  0  0  0  0  0  0
    0.0000   -1.9459    0.0000 O   0  0  0  0  0  0  0  0  0  0  0  0
    0.9730   -0.9730    0.0000 C   0  0  0  0  0  0  0  0  0  0  0  0
    1.4595   -0.1304    0.0000 C   0  0  0  0  0  0  0  0  0  0  0  0
    2.4324   -0.1304    0.0000 C   0  0  0  0  0  0  0  0  0  0  0  0
    2.9189   -0.9730    0.0000 C   0  0  0  0  0  0  0  0  0  0  0  0
    3.8919   -0.9730    0.0000 O   0  0  0  0  0  0  0  0  0  0  0  0
    4.3784   -1.8156    0.0000 C   0  0  0  0  0  0  0  0  0  0  0  0
    5.2210   -2.3021    0.0000 F   0  0  0  0  0  0  0  0  0  0  0  0
    5.2210   -1.3291    0.0000 F   0  0  0  0  0  0  0  0  0  0  0  0
    3.8919   -2.6582    0.0000 F   0  0  0  0  0  0  0  0  0  0  0  0
    2.4324   -1.8156    0.0000 C   0  0  0  0  0  0  0  0  0  0  0  0
    1.4595   -1.8156    0.0000 C   0  0  0  0  0  0  0  0  0  0  0  0
    0.0000    0.0000    0.0000 N   0  0  0  0  0  0  0  0  0  0  0  0
    0.8426    0.4865    0.0000 C   0  0  0  0  0  0  0  0  0  0  0  0
    0.8426    1.4595    0.0000 C   0  0  0  0  0  0  0  0  0  0  0  0
   -0.8426    0.4865    0.0000 C   0  0  0  0  0  0  0  0  0  0  0  0
   -1.6852    0.0000    0.0000 N   0  0  0  0  0  0  0  0  0  0  0  0
   -2.5279    0.4865    0.0000 C   0  0  0  0  0  0  0  0  0  0  0  0
   -2.5279    1.4595    0.0000 C   0  0  0  0  0  0  0  0  0  0  0  0
   -1.6852    1.9459    0.0000 C   0  0  0  0  0  0  0  0  0  0  0  0
   -0.8426    1.4595    0.0000 C   0  0  0  0  0  0  0  0  0  0  0  0
    0.0000    1.9459    0.0000 C   0  0  0  0  0  0  0  0  0  0  0  0
   -2.4324   -1.8156    0.0000 C   0  0  0  0  0  0  0  0  0  0  0  0
   -3.4054   -1.8156    0.0000 C   0  0  0  0  0  0  0  0  0  0  0  0
  1 34  2  0  0  0  0
  1  2  1  0  0  0  0
  1  7  1  0  0  0  0
  2  3  1  0  0  0  0
  3  4  1  0  0  0  0
  3  5  1  0  0  0  0
  3  6  1  0  0  0  0
  7  8  2  0  0  0  0
  8  9  1  0  0  0  0
  9 10  1  0  0  0  0
  9 33  2  0  0  0  0
 10 11  2  0  0  0  0
 10 12  1  0  0  0  0
 10 23  1  0  0  0  0
 12 22  2  0  0  0  0
 12 13  1  0  0  0  0
 13 14  2  0  0  0  0
 14 15  1  0  0  0  0
 15 16  1  0  0  0  0
 15 21  2  0  0  0  0
 16 17  1  0  0  0  0
 17 18  1  0  0  0  0
 17 19  1  0  0  0  0
 17 20  1  0  0  0  0
 21 22  1  0  0  0  0
 23 24  1  0  0  0  0
 23 26  1  0  0  0  0
 24 25  1  0  0  0  0
 26 31  2  0  0  0  0
 26 27  1  0  0  0  0
 27 28  2  0  0  0  0
 28 29  1  0  0  0  0
 29 30  2  0  0  0  0
 30 31  1  0  0  0  0
 31 32  1  0  0  0  0
 33 34  1  0  0  0  0
M  END
> <NMREDATA_VERSION>
1.1

> <NMREDATA_LEVEL>
0

> <NMREDATA_SOLVENT>
CDCl3

> <NMREDATA_FORMULA>
C22H19F6N2O3P

> <NMREDATA_SMILES>
CCN(P(=O)(c1ccc(cc1)OC(F)(F)F)c1ccc(cc1)OC(F)(F)F)c1ncccc1C

> <NMREDATA_ASSIGNMENT>
P10, 22.00, 10

> <NMREDATA_1D_31P>
Larmor=162
22.00, L=P10

$$$$
