
 OpenBabel06112616442D

 16 16  0  0  0  0  0  0  0  0999 V2000
    -4.500    -0.134     0.000 C   0  0  0  0  0  0  0  0  0  0  0  0
    -4.000    -1.000     0.000 C   0  0  0  0  0  0  0  0  0  0  0  0
    -3.000    -1.000     0.000 C   0  0  0  0  0  0  0  0  0  0  0  0
    -2.500    -0.134     0.000 C   0  0  0  0  0  0  0  0  0  0  0  0
    -1.500    -0.134     0.000 C   0  0  0  0  0  0  0  0  0  0  0  0
    -1.000    -1.000     0.000 N   0  0  0  0  0  0  0  0  0  0  0  0
     0.000    -1.000     0.000 P   0  0  0  0  0  0  0  0  0  0  0  0
     0.000    -2.000     0.000 O   0  0  0  0  0  0  0  0  0  0  0  0
     1.000    -1.000     0.000 O   0  0  0  0  0  0  0  0  0  0  0  0
     1.500    -0.134     0.000 C   0  0  0  0  0  0  0  0  0  0  0  0
     2.500    -0.134     0.000 C   0  0  0  0  0  0  0  0  0  0  0  0
     0.000     0.000     0.000 O   0  0  0  0  0  0  0  0  0  0  0  0
     0.866     0.500     0.000 C   0  0  0  0  0  0  0  0  0  0  0  0
     0.866     1.500     0.000 C   0  0  0  0  0  0  0  0  0  0  0  0
    -1.500    -1.866     0.000 C   0  0  0  0  0  0  0  0  0  0  0  0
    -2.500    -1.866     0.000 C   0  0  0  0  0  0  0  0  0  0  0  0
  1  2  2  0  0  0  0
  2  3  1  0  0  0  0
  3 16  1  0  0  0  0
  3  4  2  0  0  0  0
  4  5  1  0  0  0  0
  5  6  1  0  0  0  0
  6  7  1  0  0  0  0
  6 15  1  0  0  0  0
  7  8  2  0  0  0  0
  7  9  1  0  0  0  0
  7 12  1  0  0  0  0
  9 10  1  0  0  0  0
 10 11  1  0  0  0  0
 12 13  1  0  0  0  0
 13 14  1  0  0  0  0
 15 16  1  0  0  0  0
M  END
> <NMREDATA_VERSION>
1.1

> <NMREDATA_LEVEL>
0

> <NMREDATA_SOLVENT>
CDCl3

> <NMREDATA_FORMULA>
C11H20NO3P

> <NMREDATA_SMILES>
CCOP(=O)(N1CCC(=CC1)C=C)OCC

> <NMREDATA_ASSIGNMENT>
P7, 8.57, 7

> <NMREDATA_1D_31P>
Larmor=162MHz
8.57, L=P7

$$$$
