
 OpenBabel06112616432D

 18 19  0  0  0  0  0  0  0  0999 V2000
   -3.5491    2.8090    0.0000 C   0  0  0  0  0  0  0  0  0  0  0  0
   -3.5491    1.8090    0.0000 C   0  0  0  0  0  0  0  0  0  0  0  0
   -4.4152    1.3090    0.0000 O   0  0  0  0  0  0  0  0  0  0  0  0
   -2.6831    1.3090    0.0000 C   0  0  0  0  0  0  0  0  0  0  0  0
   -2.6831    0.3090    0.0000 C   0  0  0  0  0  0  0  0  0  0  0  0
   -1.8171   -0.1910    0.0000 C   0  0  0  0  0  0  0  0  0  0  0  0
   -1.8171   -1.1910    0.0000 C   0  0  0  0  0  0  0  0  0  0  0  0
   -0.9511    0.3090    0.0000 C   0  0  0  0  0  0  0  0  0  0  0  0
   -0.9511    1.3090    0.0000 C   0  0  0  0  0  0  0  0  0  0  0  0
   -1.8171    1.8090    0.0000 C   0  0  0  0  0  0  0  0  0  0  0  0
    0.0000    1.6180    0.0000 C   0  0  0  0  0  0  0  0  0  0  0  0
    0.3090    2.5691    0.0000 O   0  0  0  0  0  0  0  0  0  0  0  0
    0.5878    0.8090    0.0000 N   0  0  0  0  0  0  0  0  0  0  0  0
    0.0000    0.0000    0.0000 P   0  0  3  0  0  0  0  0  0  0  0  0
   -0.2079   -0.9781    0.0000 O   0  0  0  0  0  0  0  0  0  0  0  0
    0.7431   -0.6691    0.0000 O   0  0  0  0  0  0  0  0  0  0  0  0
    0.5352   -1.6473    0.0000 C   0  0  0  0  0  0  0  0  0  0  0  0
    1.2784   -2.3164    0.0000 C   0  0  0  0  0  0  0  0  0  0  0  0
  1  2  1  0  0  0  0
  2  3  2  0  0  0  0
  2  4  1  0  0  0  0
  4 10  2  0  0  0  0
  4  5  1  0  0  0  0
  5  6  2  0  0  0  0
  6  7  1  0  0  0  0
  6  8  1  0  0  0  0
  8 14  1  0  0  0  0
  8  9  2  0  0  0  0
  9 10  1  0  0  0  0
  9 11  1  0  0  0  0
 11 12  2  0  0  0  0
 11 13  1  0  0  0  0
 13 14  1  0  0  0  0
 14 15  2  0  0  0  0
 14 16  1  0  0  0  0
 16 17  1  0  0  0  0
 17 18  1  0  0  0  0
M  END
> <NMREDATA_VERSION>
1.1

> <NMREDATA_LEVEL>
0

> <NMREDATA_SOLVENT>
CDCl3

> <NMREDATA_FORMULA>
C12H14NO4P

> <NMREDATA_SMILES>
CCOP1(=O)NC(=O)c2c1c(C)cc(c2)C(=O)C

> <NMREDATA_ASSIGNMENT>
P14, 18.80, 14

> <NMREDATA_1D_31P>
Larmor=161
18.80, L=P14

$$$$
