
 OpenBabel06112616452D

 38 41  0  0  0  0  0  0  0  0999 V2000
    7.6581   -1.5000    0.0000 O   0  0  0  0  0  0  0  0  0  0  0  0
    8.6581   -1.5000    0.0000 S   0  0  0  0  0  0  0  0  0  0  0  0
    8.6581   -2.5000    0.0000 O   0  0  0  0  0  0  0  0  0  0  0  0
    9.6581   -1.5000    0.0000 C   0  0  0  0  0  0  0  0  0  0  0  0
   10.5241   -1.0000    0.0000 F   0  0  0  0  0  0  0  0  0  0  0  0
    9.6581   -0.5000    0.0000 F   0  0  0  0  0  0  0  0  0  0  0  0
   10.1581   -2.3660    0.0000 F   0  0  0  0  0  0  0  0  0  0  0  0
    8.6581   -0.5000    0.0000 O   0  5  0  0  0  0  0  0  0  0  0  0
    1.4689   -2.3923    0.0000 C   0  0  0  0  0  0  0  0  0  0  0  0
    2.2384   -1.8329    0.0000 O   0  0  0  0  0  0  0  0  0  0  0  0
    0.5997   -2.0055    0.0000 O   0  0  0  0  0  0  0  0  0  0  0  0
    0.5000   -1.0594    0.0000 C   0  0  0  0  0  0  0  0  0  0  0  0
    1.2696   -0.5000    0.0000 C   0  0  0  0  0  0  0  0  0  0  0  0
    1.4691   -3.3437    0.0000 C   0  0  0  0  0  0  0  0  0  0  0  0
    2.2932   -3.8192    0.0000 C   0  0  0  0  0  0  0  0  0  0  0  0
    2.2935   -4.7710    0.0000 C   0  0  0  0  0  0  0  0  0  0  0  0
    1.4692   -5.2471    0.0000 C   0  0  0  0  0  0  0  0  0  0  0  0
    0.6449   -4.7712    0.0000 C   0  0  0  0  0  0  0  0  0  0  0  0
    0.6448   -3.8199    0.0000 C   0  0  0  0  0  0  0  0  0  0  0  0
    2.2936   -6.6744    0.0000 C   0  0  0  0  0  0  0  0  0  0  0  0
    3.1180   -6.1983    0.0000 C   0  0  0  0  0  0  0  0  0  0  0  0
    3.9423   -6.6742    0.0000 C   0  0  0  0  0  0  0  0  0  0  0  0
    3.9424   -7.6256    0.0000 C   0  0  0  0  0  0  0  0  0  0  0  0
    3.1180   -8.1017    0.0000 C   0  0  0  0  0  0  0  0  0  0  0  0
    2.2940   -7.6263    0.0000 C   0  0  0  0  0  0  0  0  0  0  0  0
    3.1176   -5.2465    0.0000 P   0  3  0  0  0  0  0  0  0  0  0  0
    3.9414   -4.7705    0.0000 C   0  0  0  0  0  0  0  0  0  0  0  0
    3.5541   -3.9015    0.0000 C   0  0  0  0  0  0  0  0  0  0  0  0
    4.1131   -3.1316    0.0000 C   0  0  0  0  0  0  0  0  0  0  0  0
    5.0593   -3.2308    0.0000 C   0  0  0  0  0  0  0  0  0  0  0  0
    5.4465   -4.0998    0.0000 C   0  0  0  0  0  0  0  0  0  0  0  0
    4.8876   -4.8696    0.0000 C   0  0  0  0  0  0  0  0  0  0  0  0
    4.7657   -6.1974    0.0000 C   0  0  0  0  0  0  0  0  0  0  0  0
    5.3247   -5.4276    0.0000 C   0  0  0  0  0  0  0  0  0  0  0  0
    6.2709   -5.5268    0.0000 C   0  0  0  0  0  0  0  0  0  0  0  0
    6.6581   -6.3958    0.0000 C   0  0  0  0  0  0  0  0  0  0  0  0
    6.0991   -7.1657    0.0000 C   0  0  0  0  0  0  0  0  0  0  0  0
    5.1529   -7.0665    0.0000 C   0  0  0  0  0  0  0  0  0  0  0  0
  1  2  2  0  0  0  0
  2  3  2  0  0  0  0
  2  4  1  0  0  0  0
  2  8  1  0  0  0  0
  4  5  1  0  0  0  0
  4  6  1  0  0  0  0
  4  7  1  0  0  0  0
  9 10  2  0  0  0  0
  9 11  1  0  0  0  0
  9 14  1  0  0  0  0
 11 12  1  0  0  0  0
 12 13  1  0  0  0  0
 14 19  2  0  0  0  0
 14 15  1  0  0  0  0
 15 16  2  0  0  0  0
 16 26  1  0  0  0  0
 16 17  1  0  0  0  0
 17 18  2  0  0  0  0
 17 20  1  0  0  0  0
 18 19  1  0  0  0  0
 20 25  2  0  0  0  0
 20 21  1  0  0  0  0
 21 22  2  0  0  0  0
 21 26  1  0  0  0  0
 22 23  1  0  0  0  0
 23 24  2  0  0  0  0
 24 25  1  0  0  0  0
 26 27  1  0  0  0  0
 26 33  1  0  0  0  0
 27 32  2  0  0  0  0
 27 28  1  0  0  0  0
 28 29  2  0  0  0  0
 29 30  1  0  0  0  0
 30 31  2  0  0  0  0
 31 32  1  0  0  0  0
 33 38  2  0  0  0  0
 33 34  1  0  0  0  0
 34 35  2  0  0  0  0
 35 36  1  0  0  0  0
 36 37  2  0  0  0  0
 37 38  1  0  0  0  0
M  END
> <NMREDATA_VERSION>
1.1

> <NMREDATA_LEVEL>
0

> <NMREDATA_SOLVENT>
CDCl3

> <NMREDATA_FORMULA>
C28H22F3O5PS

> <NMREDATA_SMILES>
FC(S(=O)(=O)[O-])(F)F.CCOC(=O)c1ccc2-c3c([P+](c2c1)(c1ccccc1)c1ccccc1)cccc3

> <NMREDATA_ASSIGNMENT>
P26, 22.95, 26

> <NMREDATA_1D_31P>
Larmor=162
22.95, L=P26

$$$$
