
 OpenBabel06112616432D

 22 22  0  0  0  0  0  0  0  0999 V2000
    6.1485    1.9990    0.0000 C   0  0  0  0  0  0  0  0  0  0  0  0
    5.1974    2.3080    0.0000 C   0  0  0  0  0  0  0  0  0  0  0  0
    4.4543    1.6389    0.0000 C   0  0  0  0  0  0  0  0  0  0  0  0
    3.5032    1.9479    0.0000 C   0  0  0  0  0  0  0  0  0  0  0  0
    2.7601    1.2788    0.0000 C   0  0  0  0  0  0  0  0  0  0  0  0
    1.8090    1.5878    0.0000 C   0  0  0  0  0  0  0  0  0  0  0  0
    1.5000    2.5388    0.0000 O   0  0  0  0  0  0  0  0  0  0  0  0
    0.5000    2.5388    0.0000 C   0  0  0  0  0  0  0  0  0  0  0  0
   -0.0878    3.3479    0.0000 C   0  0  0  0  0  0  0  0  0  0  0  0
    0.1910    1.5878    0.0000 C   0  0  0  0  0  0  0  0  0  0  0  0
   -0.7601    1.2788    0.0000 C   0  0  0  0  0  0  0  0  0  0  0  0
   -0.9680    0.3006    0.0000 C   0  0  0  0  0  0  0  0  0  0  0  0
   -1.5032    1.9479    0.0000 O   0  0  0  0  0  0  0  0  0  0  0  0
    1.0000    1.0000    0.0000 C   0  0  0  0  0  0  0  0  0  0  0  0
    1.0000    0.0000    0.0000 P   0  0  0  0  0  0  0  0  0  0  0  0
    2.0000    0.0000    0.0000 O   0  0  0  0  0  0  0  0  0  0  0  0
    1.0000   -1.0000    0.0000 O   0  0  0  0  0  0  0  0  0  0  0  0
    1.8660   -1.5000    0.0000 C   0  0  0  0  0  0  0  0  0  0  0  0
    2.7321   -1.0000    0.0000 C   0  0  0  0  0  0  0  0  0  0  0  0
    0.0000    0.0000    0.0000 O   0  0  0  0  0  0  0  0  0  0  0  0
   -0.5000   -0.8660    0.0000 C   0  0  0  0  0  0  0  0  0  0  0  0
   -1.5000   -0.8660    0.0000 C   0  0  0  0  0  0  0  0  0  0  0  0
  1  2  1  0  0  0  0
  2  3  1  0  0  0  0
  3  4  1  0  0  0  0
  4  5  1  0  0  0  0
  5  6  1  0  0  0  0
  6 14  2  0  0  0  0
  6  7  1  0  0  0  0
  7  8  1  0  0  0  0
  8  9  1  0  0  0  0
  8 10  2  0  0  0  0
 10 11  1  0  0  0  0
 10 14  1  0  0  0  0
 11 12  1  0  0  0  0
 11 13  2  0  0  0  0
 14 15  1  0  0  0  0
 15 16  2  0  0  0  0
 15 17  1  0  0  0  0
 15 20  1  0  0  0  0
 17 18  1  0  0  0  0
 18 19  1  0  0  0  0
 20 21  1  0  0  0  0
 21 22  1  0  0  0  0
M  END
> <NMREDATA_VERSION>
1.1

> <NMREDATA_LEVEL>
0

> <NMREDATA_SOLVENT>
CDCl3

> <NMREDATA_FORMULA>
C16H27O5P

> <NMREDATA_SMILES>
CCCCCc1oc(c(c1P(=O)(OCC)OCC)C(=O)C)C

> <NMREDATA_ASSIGNMENT>
P15, 13.60, 15

> <NMREDATA_1D_31P>
Larmor=162
13.60, L=P15

$$$$
