
 OpenBabel06112616472D

 34 39  0  0  0  0  0  0  0  0999 V2000
    1.6942    0.9781    0.0000 O   0  0  0  0  0  0  0  0  0  0  0  0
    0.9511    0.3090    0.0000 P   0  0  3  0  0  0  0  0  0  0  0  0
    0.7431    1.2872    0.0000 C   0  0  0  0  0  0  0  0  0  0  0  0
   -0.2079    1.5962    0.0000 C   0  0  0  0  0  0  0  0  0  0  0  0
   -0.4158    2.5743    0.0000 C   0  0  0  0  0  0  0  0  0  0  0  0
    0.3273    3.2435    0.0000 C   0  0  0  0  0  0  0  0  0  0  0  0
    1.2784    2.9344    0.0000 C   0  0  0  0  0  0  0  0  0  0  0  0
    1.4863    1.9563    0.0000 C   0  0  0  0  0  0  0  0  0  0  0  0
    1.5388   -0.5000    0.0000 C   0  0  0  0  0  0  0  0  0  0  0  0
    2.5388   -0.5000    0.0000 C   0  0  0  0  0  0  0  0  0  0  0  0
    3.0388    0.3660    0.0000 C   0  0  0  0  0  0  0  0  0  0  0  0
    4.0388    0.3660    0.0000 C   0  0  0  0  0  0  0  0  0  0  0  0
    4.5388   -0.5000    0.0000 C   0  0  0  0  0  0  0  0  0  0  0  0
    4.0388   -1.3660    0.0000 C   0  0  0  0  0  0  0  0  0  0  0  0
    3.0388   -1.3660    0.0000 C   0  0  0  0  0  0  0  0  0  0  0  0
    0.9511   -1.3090    0.0000 C   0  0  0  0  0  0  0  0  0  0  0  0
    1.2601   -2.2601    0.0000 C   0  0  0  0  0  0  0  0  0  0  0  0
    2.2382   -2.4680    0.0000 C   0  0  0  0  0  0  0  0  0  0  0  0
    2.5472   -3.4190    0.0000 C   0  0  0  0  0  0  0  0  0  0  0  0
    1.8781   -4.1622    0.0000 C   0  0  0  0  0  0  0  0  0  0  0  0
    0.9000   -3.9543    0.0000 C   0  0  0  0  0  0  0  0  0  0  0  0
    0.5909   -3.0032    0.0000 C   0  0  0  0  0  0  0  0  0  0  0  0
    0.0000   -1.0000    0.0000 C   0  0  0  0  0  0  0  0  0  0  0  0
   -0.8660   -1.5000    0.0000 C   0  0  0  0  0  0  0  0  0  0  0  0
   -1.7321   -1.0000    0.0000 C   0  0  0  0  0  0  0  0  0  0  0  0
   -1.7321    0.0000    0.0000 C   0  0  0  0  0  0  0  0  0  0  0  0
   -2.5981    0.5000    0.0000 C   0  0  0  0  0  0  0  0  0  0  0  0
   -3.4641    0.0000    0.0000 C   0  0  0  0  0  0  0  0  0  0  0  0
   -4.3301    0.5000    0.0000 C   0  0  0  0  0  0  0  0  0  0  0  0
   -4.3301    1.5000    0.0000 C   0  0  0  0  0  0  0  0  0  0  0  0
   -3.4641    2.0000    0.0000 C   0  0  0  0  0  0  0  0  0  0  0  0
   -2.5981    1.5000    0.0000 C   0  0  0  0  0  0  0  0  0  0  0  0
   -0.8660    0.5000    0.0000 C   0  0  0  0  0  0  0  0  0  0  0  0
    0.0000    0.0000    0.0000 C   0  0  0  0  0  0  0  0  0  0  0  0
  1  2  2  0  0  0  0
  2 34  1  0  0  0  0
  2  3  1  0  0  0  0
  2  9  1  0  0  0  0
  3  8  2  0  0  0  0
  3  4  1  0  0  0  0
  4  5  2  0  0  0  0
  5  6  1  0  0  0  0
  6  7  2  0  0  0  0
  7  8  1  0  0  0  0
  9 10  1  0  0  0  0
  9 16  2  0  0  0  0
 10 15  2  0  0  0  0
 10 11  1  0  0  0  0
 11 12  2  0  0  0  0
 12 13  1  0  0  0  0
 13 14  2  0  0  0  0
 14 15  1  0  0  0  0
 16 17  1  0  0  0  0
 16 23  1  0  0  0  0
 17 22  2  0  0  0  0
 17 18  1  0  0  0  0
 18 19  2  0  0  0  0
 19 20  1  0  0  0  0
 20 21  2  0  0  0  0
 21 22  1  0  0  0  0
 23 34  2  0  0  0  0
 23 24  1  0  0  0  0
 24 25  2  0  0  0  0
 25 26  1  0  0  0  0
 26 27  1  0  0  0  0
 26 33  2  0  0  0  0
 27 32  2  0  0  0  0
 27 28  1  0  0  0  0
 28 29  2  0  0  0  0
 29 30  1  0  0  0  0
 30 31  2  0  0  0  0
 31 32  1  0  0  0  0
 33 34  1  0  0  0  0
M  END
> <NMREDATA_VERSION>
1.1

> <NMREDATA_LEVEL>
0

> <NMREDATA_SOLVENT>
CDCl3

> <NMREDATA_FORMULA>
C32H23OP

> <NMREDATA_SMILES>
O=P1(c2ccccc2)c2cc(ccc2C(=C1c1ccccc1)c1ccccc1)c1ccccc1

> <NMREDATA_ASSIGNMENT>
P2, 38.90, 2

> <NMREDATA_1D_31P>
Larmor=162
38.90, L=P2

$$$$
