
 OpenBabel06112616482D

 32 36  0  0  0  0  0  0  0  0999 V2000
   -4.3784   -0.1304    0.0000 C   0  0  0  0  0  0  0  0  0  0  0  0
   -3.8919   -0.9730    0.0000 O   0  0  0  0  0  0  0  0  0  0  0  0
   -2.9189   -0.9730    0.0000 C   0  0  0  0  0  0  0  0  0  0  0  0
   -2.4324   -0.1304    0.0000 C   0  0  0  0  0  0  0  0  0  0  0  0
   -1.4595   -0.1304    0.0000 C   0  0  0  0  0  0  0  0  0  0  0  0
   -0.9730   -0.9730    0.0000 C   0  0  0  0  0  0  0  0  0  0  0  0
    0.0000   -0.9730    0.0000 P   0  0  0  0  0  0  0  0  0  0  0  0
    0.0000   -1.9459    0.0000 O   0  0  0  0  0  0  0  0  0  0  0  0
    1.9459   -0.9730    0.0000 C   0  0  0  0  0  0  0  0  0  0  0  0
    2.4324   -0.1304    0.0000 C   0  0  0  0  0  0  0  0  0  0  0  0
    3.4054   -0.1304    0.0000 C   0  0  0  0  0  0  0  0  0  0  0  0
    3.8919   -0.9730    0.0000 C   0  0  0  0  0  0  0  0  0  0  0  0
    4.8649   -0.9730    0.0000 O   0  0  0  0  0  0  0  0  0  0  0  0
    5.3514   -0.1304    0.0000 C   0  0  0  0  0  0  0  0  0  0  0  0
    3.4054   -1.8156    0.0000 C   0  0  0  0  0  0  0  0  0  0  0  0
    2.4324   -1.8156    0.0000 C   0  0  0  0  0  0  0  0  0  0  0  0
    0.0000    0.0000    0.0000 C   0  0  0  0  0  0  0  0  0  0  0  0
   -0.8426    0.4865    0.0000 N   0  0  0  0  0  0  0  0  0  0  0  0
   -0.8426    1.4595    0.0000 C   0  0  0  0  0  0  0  0  0  0  0  0
   -1.6852    1.9459    0.0000 C   0  0  0  0  0  0  0  0  0  0  0  0
   -1.6852    2.9189    0.0000 C   0  0  0  0  0  0  0  0  0  0  0  0
   -0.8426    3.4054    0.0000 C   0  0  0  0  0  0  0  0  0  0  0  0
    0.0000    2.9189    0.0000 C   0  0  0  0  0  0  0  0  0  0  0  0
    0.0000    1.9459    0.0000 C   0  0  0  0  0  0  0  0  0  0  0  0
    0.8426    1.4595    0.0000 C   0  0  0  0  0  0  0  0  0  0  0  0
    1.6852    1.9459    0.0000 C   0  0  0  0  0  0  0  0  0  0  0  0
    2.5279    1.4595    0.0000 C   0  0  0  0  0  0  0  0  0  0  0  0
    2.5279    0.4865    0.0000 C   0  0  0  0  0  0  0  0  0  0  0  0
    1.6852    0.0000    0.0000 C   0  0  0  0  0  0  0  0  0  0  0  0
    0.8426    0.4865    0.0000 C   0  0  0  0  0  0  0  0  0  0  0  0
   -1.4595   -1.8156    0.0000 C   0  0  0  0  0  0  0  0  0  0  0  0
   -2.4324   -1.8156    0.0000 C   0  0  0  0  0  0  0  0  0  0  0  0
  1  2  1  0  0  0  0
  2  3  1  0  0  0  0
  3 32  2  0  0  0  0
  3  4  1  0  0  0  0
  4  5  2  0  0  0  0
  5  6  1  0  0  0  0
  6  7  1  0  0  0  0
  6 31  2  0  0  0  0
  7  8  2  0  0  0  0
  7  9  1  0  0  0  0
  7 17  1  0  0  0  0
  9 16  2  0  0  0  0
  9 10  1  0  0  0  0
 10 11  2  0  0  0  0
 11 12  1  0  0  0  0
 12 13  1  0  0  0  0
 12 15  2  0  0  0  0
 13 14  1  0  0  0  0
 15 16  1  0  0  0  0
 17 30  2  0  0  0  0
 17 18  1  0  0  0  0
 18 19  2  0  0  0  0
 19 24  1  0  0  0  0
 19 20  1  0  0  0  0
 20 21  2  0  0  0  0
 21 22  1  0  0  0  0
 22 23  2  0  0  0  0
 23 24  1  0  0  0  0
 24 25  2  0  0  0  0
 25 30  1  0  0  0  0
 25 26  1  0  0  0  0
 26 27  2  0  0  0  0
 27 28  1  0  0  0  0
 28 29  2  0  0  0  0
 29 30  1  0  0  0  0
 31 32  1  0  0  0  0
M  END
> <NMREDATA_VERSION>
1.1

> <NMREDATA_LEVEL>
0

> <NMREDATA_SOLVENT>
CDCl3

> <NMREDATA_FORMULA>
C27H22NO3P

> <NMREDATA_SMILES>
COc1ccc(cc1)P(=O)(c1nc2ccccc2c2c1cccc2)c1ccc(cc1)OC

> <NMREDATA_ASSIGNMENT>
P7, 28.56, 7

> <NMREDATA_1D_31P>
Larmor=162
28.56, L=P7

$$$$
