
 OpenBabel06112616452D

 35 37  0  0  0  0  0  0  0  0999 V2000
   -2.9211    2.3993    0.0000 C   0  0  0  0  0  0  0  0  0  0  0  0
   -2.4342    1.5560    0.0000 C   0  0  0  0  0  0  0  0  0  0  0  0
   -1.5910    1.0692    0.0000 C   0  0  0  0  0  0  0  0  0  0  0  0
   -1.5910    2.0429    0.0000 C   0  0  0  0  0  0  0  0  0  0  0  0
   -2.9211    0.7128    0.0000 O   0  0  0  0  0  0  0  0  0  0  0  0
   -2.4342   -0.1304    0.0000 C   0  0  0  0  0  0  0  0  0  0  0  0
   -2.9211   -0.9737    0.0000 O   0  0  0  0  0  0  0  0  0  0  0  0
   -1.4605   -0.1304    0.0000 N   0  5  0  0  0  0  0  0  0  0  0  0
   -0.9737   -0.9737    0.0000 N   0  0  0  0  0  0  0  0  0  0  0  0
   -1.9474   -2.6602    0.0000 C   0  0  0  0  0  0  0  0  0  0  0  0
   -1.4605   -3.5034    0.0000 O   0  0  0  0  0  0  0  0  0  0  0  0
   -2.9211   -2.6602    0.0000 O   0  0  0  0  0  0  0  0  0  0  0  0
   -3.4079   -3.5034    0.0000 C   0  0  0  0  0  0  0  0  0  0  0  0
   -4.2511   -3.9902    0.0000 C   0  0  0  0  0  0  0  0  0  0  0  0
   -4.2511   -3.0165    0.0000 C   0  0  0  0  0  0  0  0  0  0  0  0
   -2.9211   -4.3466    0.0000 C   0  0  0  0  0  0  0  0  0  0  0  0
    0.0000   -0.9737    0.0000 P   0  3  0  0  0  0  0  0  0  0  0  0
    0.0000   -1.9474    0.0000 C   0  0  0  0  0  0  0  0  0  0  0  0
    0.8432   -2.4342    0.0000 C   0  0  0  0  0  0  0  0  0  0  0  0
    0.8432   -3.4079    0.0000 C   0  0  0  0  0  0  0  0  0  0  0  0
    0.0000   -3.8947    0.0000 C   0  0  0  0  0  0  0  0  0  0  0  0
   -0.8432   -3.4079    0.0000 C   0  0  0  0  0  0  0  0  0  0  0  0
   -0.8432   -2.4342    0.0000 C   0  0  0  0  0  0  0  0  0  0  0  0
    0.9737   -0.9737    0.0000 C   0  0  0  0  0  0  0  0  0  0  0  0
    1.4605   -0.1304    0.0000 C   0  0  0  0  0  0  0  0  0  0  0  0
    2.4342   -0.1304    0.0000 C   0  0  0  0  0  0  0  0  0  0  0  0
    2.9211   -0.9737    0.0000 C   0  0  0  0  0  0  0  0  0  0  0  0
    2.4342   -1.8169    0.0000 C   0  0  0  0  0  0  0  0  0  0  0  0
    1.4605   -1.8169    0.0000 C   0  0  0  0  0  0  0  0  0  0  0  0
    0.0000    0.0000    0.0000 C   0  0  0  0  0  0  0  0  0  0  0  0
   -0.8432    0.4868    0.0000 C   0  0  0  0  0  0  0  0  0  0  0  0
   -0.8432    1.4605    0.0000 C   0  0  0  0  0  0  0  0  0  0  0  0
    0.0000    1.9474    0.0000 C   0  0  0  0  0  0  0  0  0  0  0  0
    0.8432    1.4605    0.0000 C   0  0  0  0  0  0  0  0  0  0  0  0
    0.8432    0.4868    0.0000 C   0  0  0  0  0  0  0  0  0  0  0  0
  1  2  1  0  0  0  0
  2  3  1  0  0  0  0
  2  4  1  0  0  0  0
  2  5  1  0  0  0  0
  5  6  1  0  0  0  0
  6  7  2  0  0  0  0
  6  8  1  0  0  0  0
  8  9  1  0  0  0  0
  9 10  1  0  0  0  0
  9 17  1  0  0  0  0
 10 11  2  0  0  0  0
 10 12  1  0  0  0  0
 12 13  1  0  0  0  0
 13 14  1  0  0  0  0
 13 15  1  0  0  0  0
 13 16  1  0  0  0  0
 17 18  1  0  0  0  0
 17 24  1  0  0  0  0
 17 30  1  0  0  0  0
 18 23  2  0  0  0  0
 18 19  1  0  0  0  0
 19 20  2  0  0  0  0
 20 21  1  0  0  0  0
 21 22  2  0  0  0  0
 22 23  1  0  0  0  0
 24 29  2  0  0  0  0
 24 25  1  0  0  0  0
 25 26  2  0  0  0  0
 26 27  1  0  0  0  0
 27 28  2  0  0  0  0
 28 29  1  0  0  0  0
 30 35  2  0  0  0  0
 30 31  1  0  0  0  0
 31 32  2  0  0  0  0
 32 33  1  0  0  0  0
 33 34  2  0  0  0  0
 34 35  1  0  0  0  0
M  END
> <NMREDATA_VERSION>
1.1

> <NMREDATA_LEVEL>
0

> <NMREDATA_SOLVENT>
CD3CN

> <NMREDATA_FORMULA>
C28H33N2O4P

> <NMREDATA_SMILES>
O=C(N([P+](c1ccccc1)(c1ccccc1)c1ccccc1)[N-]C(=O)OC(C)(C)C)OC(C)(C)C

> <NMREDATA_ASSIGNMENT>
P17, 44.72, 17

> <NMREDATA_1D_31P>
Larmor=162
44.72, L=P17

$$$$
