
 OpenBabel06112616462D

 45 52  0  0  0  0  0  0  0  0999 V2000
    0.0000   -0.8814    0.0000 C   0  0  0  0  0  0  0  0  0  0  0  0
   -0.7633   -1.3220    0.0000 C   0  0  0  0  0  0  0  0  0  0  0  0
   -1.5266   -0.8814    0.0000 C   0  0  0  0  0  0  0  0  0  0  0  0
   -1.5266    0.0000    0.0000 C   0  0  0  0  0  0  0  0  0  0  0  0
   -2.2898    0.4407    0.0000 P   0  0  0  0  0  0  0  0  0  0  0  0
   -3.0531    0.0000    0.0000 C   0  0  0  0  0  0  0  0  0  0  0  0
   -3.8164    0.4407    0.0000 C   0  0  0  0  0  0  0  0  0  0  0  0
   -4.5797    0.0000    0.0000 C   0  0  0  0  0  0  0  0  0  0  0  0
   -4.5797   -0.8814    0.0000 C   0  0  0  0  0  0  0  0  0  0  0  0
   -3.8164   -1.3220    0.0000 C   0  0  0  0  0  0  0  0  0  0  0  0
   -3.0531   -0.8814    0.0000 C   0  0  0  0  0  0  0  0  0  0  0  0
   -2.2898    1.3220    0.0000 C   0  0  0  0  0  0  0  0  0  0  0  0
   -3.0531    1.7627    0.0000 C   0  0  0  0  0  0  0  0  0  0  0  0
   -9.1593   -1.7627    0.0000 C   0  0  0  0  0  0  0  0  0  0  0  0
   -9.9226   -1.3220    0.0000 C   0  0  0  0  0  0  0  0  0  0  0  0
   -9.9226   -0.4407    0.0000 C   0  0  0  0  0  0  0  0  0  0  0  0
  -10.6859    0.0000    0.0000 C   0  0  0  0  0  0  0  0  0  0  0  0
  -10.6859    0.8814    0.0000 C   0  0  0  0  0  0  0  0  0  0  0  0
   -9.9226    1.3220    0.0000 C   0  0  0  0  0  0  0  0  0  0  0  0
   -9.9226    2.2034    0.0000 C   0  0  0  0  0  0  0  0  0  0  0  0
  -10.6859    2.6441    0.0000 C   0  0  0  0  0  0  0  0  0  0  0  0
  -11.4491    2.2034    0.0000 C   0  0  0  0  0  0  0  0  0  0  0  0
  -11.4491    1.3220    0.0000 C   0  0  0  0  0  0  0  0  0  0  0  0
   -9.1593    0.8814    0.0000 C   0  0  0  0  0  0  0  0  0  0  0  0
   -9.1593    0.0000    0.0000 C   0  0  0  0  0  0  0  0  0  0  0  0
  -10.6859   -1.7627    0.0000 C   0  0  0  0  0  0  0  0  0  0  0  0
  -10.6859   -2.6441    0.0000 C   0  0  0  0  0  0  0  0  0  0  0  0
   -9.9226   -3.0847    0.0000 C   0  0  0  0  0  0  0  0  0  0  0  0
   -9.1593   -2.6441    0.0000 C   0  0  0  0  0  0  0  0  0  0  0  0
   -8.3960   -3.0847    0.0000 C   0  0  0  0  0  0  0  0  0  0  0  0
   -8.3960   -3.9661    0.0000 C   0  0  0  0  0  0  0  0  0  0  0  0
   -7.6328   -4.4068    0.0000 C   0  0  0  0  0  0  0  0  0  0  0  0
   -6.8695   -3.9661    0.0000 C   0  0  0  0  0  0  0  0  0  0  0  0
   -6.1062   -4.4068    0.0000 C   0  0  0  0  0  0  0  0  0  0  0  0
   -6.1062   -5.2881    0.0000 C   0  0  0  0  0  0  0  0  0  0  0  0
   -6.8695   -5.7288    0.0000 C   0  0  0  0  0  0  0  0  0  0  0  0
   -7.6328   -5.2881    0.0000 C   0  0  0  0  0  0  0  0  0  0  0  0
   -6.8695   -3.0847    0.0000 C   0  0  0  0  0  0  0  0  0  0  0  0
   -7.6328   -2.6441    0.0000 C   0  0  0  0  0  0  0  0  0  0  0  0
   -3.0531    2.6441    0.0000 C   0  0  0  0  0  0  0  0  0  0  0  0
   -2.2898    3.0847    0.0000 C   0  0  0  0  0  0  0  0  0  0  0  0
   -1.5266    2.6441    0.0000 C   0  0  0  0  0  0  0  0  0  0  0  0
   -1.5266    1.7627    0.0000 C   0  0  0  0  0  0  0  0  0  0  0  0
   -0.7633    0.4407    0.0000 C   0  0  0  0  0  0  0  0  0  0  0  0
    0.0000    0.0000    0.0000 C   0  0  0  0  0  0  0  0  0  0  0  0
  1 45  1  0  0  0  0
  1  2  1  0  0  0  0
  2  3  1  0  0  0  0
  3  4  1  0  0  0  0
  4  5  1  0  0  0  0
  4 44  1  0  0  0  0
  5  6  1  0  0  0  0
  5 12  1  0  0  0  0
  6 11  1  0  0  0  0
  6  7  1  0  0  0  0
  7  8  1  0  0  0  0
  8  9  1  0  0  0  0
  9 10  1  0  0  0  0
 10 11  1  0  0  0  0
 12 43  2  0  0  0  0
 12 13  1  0  0  0  0
 13 14  1  0  0  0  0
 13 40  2  0  0  0  0
 14 29  2  0  0  0  0
 14 15  1  0  0  0  0
 15 16  1  0  0  0  0
 15 26  2  0  0  0  0
 16 25  2  0  0  0  0
 16 17  1  0  0  0  0
 17 18  2  0  0  0  0
 18 23  1  0  0  0  0
 18 19  1  0  0  0  0
 19 20  1  0  0  0  0
 19 24  2  0  0  0  0
 20 21  2  0  0  0  0
 21 22  1  0  0  0  0
 22 23  2  0  0  0  0
 24 25  1  0  0  0  0
 26 27  1  0  0  0  0
 27 28  2  0  0  0  0
 28 29  1  0  0  0  0
 29 30  1  0  0  0  0
 30 39  2  0  0  0  0
 30 31  1  0  0  0  0
 31 32  2  0  0  0  0
 32 37  1  0  0  0  0
 32 33  1  0  0  0  0
 33 34  1  0  0  0  0
 33 38  2  0  0  0  0
 34 35  2  0  0  0  0
 35 36  1  0  0  0  0
 36 37  2  0  0  0  0
 38 39  1  0  0  0  0
 40 41  1  0  0  0  0
 41 42  2  0  0  0  0
 42 43  1  0  0  0  0
 44 45  1  0  0  0  0
M  END
> <NMREDATA_VERSION>
1.1

> <NMREDATA_LEVEL>
0

> <NMREDATA_SOLVENT>
CDCl3

> <NMREDATA_FORMULA>
C44H43P

> <NMREDATA_SMILES>
C1CCC(CC1)P(c1ccccc1c1c(cccc1c1ccc2c(c1)cccc2)c1ccc2c(c1)cccc2)C1CCCCC1

> <NMREDATA_ASSIGNMENT>
P5, -9.30, 5

> <NMREDATA_1D_31P>
Larmor=162
-9.30, L=P5

$$$$
