
 OpenBabel06112616432D

 26 27  0  0  1  0  0  0  0  0999 V2000
    2.1213   -3.1213    0.0000 C   0  0  0  0  0  0  0  0  0  0  0  0
    1.4142   -2.4142    0.0000 C   0  0  2  0  0  0  0  0  0  0  0  0
    1.6730   -1.4483    0.0000 C   0  0  2  0  0  0  0  0  0  0  0  0
    2.6390   -1.1895    0.0000 C   0  0  0  0  0  0  0  0  0  0  0  0
    2.8978   -0.2235    0.0000 C   0  0  0  0  0  0  0  0  0  0  0  0
    3.8637    0.0353    0.0000 C   0  0  0  0  0  0  0  0  0  0  0  0
    4.5708   -0.6718    0.0000 C   0  0  0  0  0  0  0  0  0  0  0  0
    5.5367   -0.4130    0.0000 N   0  3  0  0  0  0  0  0  0  0  0  0
    6.2438   -1.1201    0.0000 O   0  5  0  0  0  0  0  0  0  0  0  0
    5.7956    0.5529    0.0000 O   0  0  0  0  0  0  0  0  0  0  0  0
    4.3120   -1.6378    0.0000 C   0  0  0  0  0  0  0  0  0  0  0  0
    3.3461   -1.8966    0.0000 C   0  0  0  0  0  0  0  0  0  0  0  0
    0.9659   -0.7412    0.0000 O   0  0  0  0  0  0  0  0  0  0  0  0
    0.0000   -1.0000    0.0000 P   0  0  3  0  0  0  0  0  0  0  0  0
   -0.1305   -1.9914    0.0000 O   0  0  0  0  0  0  0  0  0  0  0  0
   -0.8660   -1.5000    0.0000 O   0  0  0  0  0  0  0  0  0  0  0  0
   -1.7321   -1.0000    0.0000 C   0  0  2  0  0  0  0  0  0  0  0  0
   -2.5981   -1.5000    0.0000 C   0  0  0  0  0  0  0  0  0  0  0  0
   -2.5981   -2.5000    0.0000 C   0  0  0  0  0  0  0  0  0  0  0  0
   -1.7321    0.0000    0.0000 C   0  0  0  0  0  0  0  0  0  0  0  0
   -0.8660    0.5000    0.0000 C   0  0  1  0  0  0  0  0  0  0  0  0
   -0.8660    1.5000    0.0000 C   0  0  0  0  0  0  0  0  0  0  0  0
    0.0000    2.0000    0.0000 C   0  0  0  0  0  0  0  0  0  0  0  0
    0.0000    0.0000    0.0000 O   0  0  0  0  0  0  0  0  0  0  0  0
    0.4483   -2.6730    0.0000 C   0  0  0  0  0  0  0  0  0  0  0  0
    0.1895   -3.6390    0.0000 C   0  0  0  0  0  0  0  0  0  0  0  0
  2  1  1  1  0  0  0
  2  3  1  0  0  0  0
  2 25  1  0  0  0  0
  3  4  1  0  0  0  0
  3 13  1  1  0  0  0
  4 12  2  0  0  0  0
  4  5  1  0  0  0  0
  5  6  2  0  0  0  0
  6  7  1  0  0  0  0
  7  8  1  0  0  0  0
  7 11  2  0  0  0  0
  8  9  1  0  0  0  0
  8 10  2  0  0  0  0
 11 12  1  0  0  0  0
 13 14  1  0  0  0  0
 14 24  1  0  0  0  0
 14 15  2  0  0  0  0
 14 16  1  0  0  0  0
 16 17  1  0  0  0  0
 17 18  1  6  0  0  0
 17 20  1  0  0  0  0
 18 19  2  0  0  0  0
 20 21  1  0  0  0  0
 21 22  1  1  0  0  0
 21 24  1  0  0  0  0
 22 23  2  0  0  0  0
 25 26  2  0  0  0  0
M  END
> <NMREDATA_VERSION>
1.1

> <NMREDATA_LEVEL>
0

> <NMREDATA_SOLVENT>
CDCl3

> <NMREDATA_FORMULA>
C18H22NO6P

> <NMREDATA_SMILES>
C=C[C@@H]([C@H](c1ccc(cc1)[N+](=O)[O-])OP1(=O)O[C@H](C=C)C[C@H](O1)C=C)C

> <NMREDATA_ASSIGNMENT>
P14, -7.82, 14

> <NMREDATA_1D_31P>
Larmor=162
-7.82, L=P14

$$$$
