
 OpenBabel06112616472D

 42 46  0  0  0  0  0  0  0  0999 V2000
   -3.9149   -2.6739    0.0000 C   0  0  0  0  0  0  0  0  0  0  0  0
   -2.9362   -2.6739    0.0000 C   0  0  0  0  0  0  0  0  0  0  0  0
   -2.4468   -1.8263    0.0000 C   0  0  0  0  0  0  0  0  0  0  0  0
   -1.4681   -1.8263    0.0000 C   0  0  0  0  0  0  0  0  0  0  0  0
   -0.9787   -0.9787    0.0000 O   0  0  0  0  0  0  0  0  0  0  0  0
    0.0000   -0.9787    0.0000 P   0  0  0  0  0  0  0  0  0  0  0  0
    0.0000   -1.9574    0.0000 O   0  0  0  0  0  0  0  0  0  0  0  0
    0.9787   -0.9787    0.0000 C   0  0  0  0  0  0  0  0  0  0  0  0
    1.4681   -0.1311    0.0000 C   0  0  0  0  0  0  0  0  0  0  0  0
    2.4468   -0.1311    0.0000 C   0  0  0  0  0  0  0  0  0  0  0  0
    2.9362   -0.9787    0.0000 C   0  0  0  0  0  0  0  0  0  0  0  0
    2.4468   -1.8263    0.0000 C   0  0  0  0  0  0  0  0  0  0  0  0
    1.4681   -1.8263    0.0000 C   0  0  0  0  0  0  0  0  0  0  0  0
    0.0000    0.0000    0.0000 C   0  0  0  0  0  0  0  0  0  0  0  0
   -0.8476    0.4894    0.0000 C   0  0  0  0  0  0  0  0  0  0  0  0
   -0.8476    1.4681    0.0000 C   0  0  0  0  0  0  0  0  0  0  0  0
    0.0000    1.9574    0.0000 C   0  0  0  0  0  0  0  0  0  0  0  0
    0.8476    1.4681    0.0000 C   0  0  0  0  0  0  0  0  0  0  0  0
    0.8476    0.4894    0.0000 C   0  0  0  0  0  0  0  0  0  0  0  0
   -0.9787   -2.6739    0.0000 C   0  0  0  0  0  0  0  0  0  0  0  0
   -1.4681   -3.5215    0.0000 C   0  0  0  0  0  0  0  0  0  0  0  0
   -0.9787   -4.3691    0.0000 C   0  0  0  0  0  0  0  0  0  0  0  0
    0.0000   -4.3691    0.0000 C   0  0  0  0  0  0  0  0  0  0  0  0
    0.4894   -3.5215    0.0000 C   0  0  0  0  0  0  0  0  0  0  0  0
    0.0000   -2.6739    0.0000 C   0  0  0  0  0  0  0  0  0  0  0  0
   -2.9362   -0.9787    0.0000 I   0  0  0  0  0  0  0  0  0  0  0  0
   -3.9095   -0.8764    0.0000 O   0  0  0  0  0  0  0  0  0  0  0  0
   -4.1130    0.0809    0.0000 C   0  0  0  0  0  0  0  0  0  0  0  0
   -5.2636    1.6645    0.0000 C   0  0  0  0  0  0  0  0  0  0  0  0
   -6.1577    2.0626    0.0000 F   0  0  0  0  0  0  0  0  0  0  0  0
   -6.0554    1.0892    0.0000 F   0  0  0  0  0  0  0  0  0  0  0  0
   -4.8655    2.5586    0.0000 F   0  0  0  0  0  0  0  0  0  0  0  0
   -5.0864   -0.0214    0.0000 C   0  0  0  0  0  0  0  0  0  0  0  0
   -5.8782   -0.5967    0.0000 F   0  0  0  0  0  0  0  0  0  0  0  0
   -4.9841   -0.9947    0.0000 F   0  0  0  0  0  0  0  0  0  0  0  0
   -5.6617    0.7704    0.0000 F   0  0  0  0  0  0  0  0  0  0  0  0
   -3.2654    0.5703    0.0000 C   0  0  0  0  0  0  0  0  0  0  0  0
   -3.0619    1.5276    0.0000 C   0  0  0  0  0  0  0  0  0  0  0  0
   -2.1311    1.8301    0.0000 C   0  0  0  0  0  0  0  0  0  0  0  0
   -1.4038    1.1752    0.0000 C   0  0  0  0  0  0  0  0  0  0  0  0
   -1.6073    0.2178    0.0000 C   0  0  0  0  0  0  0  0  0  0  0  0
   -2.5381   -0.0846    0.0000 C   0  0  0  0  0  0  0  0  0  0  0  0
  1  2  1  0  0  0  0
  2  3  1  0  0  0  0
  3  4  2  0  0  0  0
  3 26  1  0  0  0  0
  4  5  1  0  0  0  0
  4 20  1  0  0  0  0
  5  6  1  0  0  0  0
  6  7  2  0  0  0  0
  6  8  1  0  0  0  0
  6 14  1  0  0  0  0
  8 13  2  0  0  0  0
  8  9  1  0  0  0  0
  9 10  2  0  0  0  0
 10 11  1  0  0  0  0
 11 12  2  0  0  0  0
 12 13  1  0  0  0  0
 14 19  2  0  0  0  0
 14 15  1  0  0  0  0
 15 16  2  0  0  0  0
 16 17  1  0  0  0  0
 17 18  2  0  0  0  0
 18 19  1  0  0  0  0
 20 25  2  0  0  0  0
 20 21  1  0  0  0  0
 21 22  2  0  0  0  0
 22 23  1  0  0  0  0
 23 24  2  0  0  0  0
 24 25  1  0  0  0  0
 26 42  1  0  0  0  0
 26 27  1  0  0  0  0
 27 28  1  0  0  0  0
 28 29  1  0  0  0  0
 28 33  1  0  0  0  0
 28 37  1  0  0  0  0
 29 30  1  0  0  0  0
 29 31  1  0  0  0  0
 29 32  1  0  0  0  0
 33 34  1  0  0  0  0
 33 35  1  0  0  0  0
 33 36  1  0  0  0  0
 37 42  2  0  0  0  0
 37 38  1  0  0  0  0
 38 39  2  0  0  0  0
 39 40  1  0  0  0  0
 40 41  2  0  0  0  0
 41 42  1  0  0  0  0
M  END
> <NMREDATA_VERSION>
1.1

> <NMREDATA_LEVEL>
0

> <NMREDATA_SOLVENT>
CDCl3

> <NMREDATA_FORMULA>
C31H24F6IO3P

> <NMREDATA_SMILES>
CC/C(=C(\c1ccccc1)/OP(=O)(c1ccccc1)c1ccccc1)/[I]1OC(c2c1cccc2)(C(F)(F)F)C(F)(F)F

> <NMREDATA_ASSIGNMENT>
P6, 31.50, 6

> <NMREDATA_1D_31P>
Larmor=162
31.50, L=P6

$$$$
