
 OpenBabel06112616462D

 20 22  0  0  0  0  0  0  0  0999 V2000
   -0.2889    0.8890    0.0000 O   0  0  0  0  0  0  0  0  0  0  0  0
    0.0000    0.0000    0.0000 P   0  0  0  0  0  0  0  0  0  0  0  0
   -0.8890   -0.2889    0.0000 O   0  0  0  0  0  0  0  0  0  0  0  0
   -1.5837    0.3366    0.0000 C   0  0  0  0  0  0  0  0  0  0  0  0
   -1.3894    1.2510    0.0000 C   0  0  0  0  0  0  0  0  0  0  0  0
    0.2889   -0.8890    0.0000 O   0  0  0  0  0  0  0  0  0  0  0  0
   -0.3366   -1.5837    0.0000 C   0  0  0  0  0  0  0  0  0  0  0  0
   -1.2510   -1.3894    0.0000 C   0  0  0  0  0  0  0  0  0  0  0  0
    0.9348    0.0000    0.0000 C   0  0  0  0  0  0  0  0  0  0  0  0
    1.4022    0.8095    0.0000 C   0  0  0  0  0  0  0  0  0  0  0  0
    2.3371    0.8095    0.0000 C   0  0  0  0  0  0  0  0  0  0  0  0
    2.8049    1.6194    0.0000 C   0  0  0  0  0  0  0  0  0  0  0  0
    3.7397    1.6194    0.0000 C   0  0  0  0  0  0  0  0  0  0  0  0
    3.7397    0.0000    0.0000 C   0  0  0  0  0  0  0  0  0  0  0  0
    2.8049    0.0000    0.0000 C   0  0  0  0  0  0  0  0  0  0  0  0
    2.3371   -0.8098    0.0000 C   0  0  0  0  0  0  0  0  0  0  0  0
    1.4022   -0.8098    0.0000 C   0  0  0  0  0  0  0  0  0  0  0  0
    2.3371    2.4292    0.0000 C   0  0  0  0  0  0  0  0  0  0  0  0
    1.4022    2.4292    0.0000 C   0  0  0  0  0  0  0  0  0  0  0  0
    0.9348    1.6194    0.0000 C   0  0  0  0  0  0  0  0  0  0  0  0
  1  2  2  0  0  0  0
  2  3  1  0  0  0  0
  2  6  1  0  0  0  0
  2  9  1  0  0  0  0
  3  4  1  0  0  0  0
  4  5  1  0  0  0  0
  6  7  1  0  0  0  0
  7  8  1  0  0  0  0
  9 17  2  0  0  0  0
  9 10  1  0  0  0  0
 10 20  1  0  0  0  0
 10 11  2  0  0  0  0
 11 15  1  0  0  0  0
 11 12  1  0  0  0  0
 12 13  1  0  0  0  0
 12 18  2  0  0  0  0
 13 14  1  0  0  0  0
 14 15  1  0  0  0  0
 15 16  2  0  0  0  0
 16 17  1  0  0  0  0
 18 19  1  0  0  0  0
 19 20  2  0  0  0  0
M  END
> <NMREDATA_VERSION>
1.1

> <NMREDATA_LEVEL>
0

> <NMREDATA_SOLVENT>
CDCl3

> <NMREDATA_FORMULA>
C16H19O3P

> <NMREDATA_SMILES>
CCOP(=O)(c1ccc2c3c1cccc3CC2)OCC

> <NMREDATA_ASSIGNMENT>
P2, 19.92, 2

> <NMREDATA_1D_31P>
Larmor=243
19.92, L=P2

$$$$
