
 OpenBabel06112616462D

 39 43  0  0  0  0  0  0  0  0999 V2000
    1.9545   -2.9318    0.0000 C   0  0  0  0  0  0  0  0  0  0  0  0
    1.1082   -2.4432    0.0000 C   0  0  0  0  0  0  0  0  0  0  0  0
    1.1082   -1.4659    0.0000 C   0  0  0  0  0  0  0  0  0  0  0  0
    1.9545   -0.9773    0.0000 C   0  0  0  0  0  0  0  0  0  0  0  0
    1.9545    0.0000    0.0000 P   0  0  0  0  0  0  0  0  0  0  0  0
    2.9318    0.0000    0.0000 C   0  0  0  0  0  0  0  0  0  0  0  0
    3.4205    0.8463    0.0000 C   0  0  0  0  0  0  0  0  0  0  0  0
    4.3977    0.8463    0.0000 C   0  0  0  0  0  0  0  0  0  0  0  0
    4.8864    0.0000    0.0000 C   0  0  0  0  0  0  0  0  0  0  0  0
    4.3977   -0.8463    0.0000 C   0  0  0  0  0  0  0  0  0  0  0  0
    3.4205   -0.8463    0.0000 C   0  0  0  0  0  0  0  0  0  0  0  0
    1.9545    0.9773    0.0000 C   0  0  0  0  0  0  0  0  0  0  0  0
    1.1082    1.4659    0.0000 C   0  0  0  0  0  0  0  0  0  0  0  0
    1.1082    2.4432    0.0000 C   0  0  0  0  0  0  0  0  0  0  0  0
    1.9545    2.9318    0.0000 C   0  0  0  0  0  0  0  0  0  0  0  0
    2.8009    2.4432    0.0000 C   0  0  0  0  0  0  0  0  0  0  0  0
    2.8009    1.4659    0.0000 C   0  0  0  0  0  0  0  0  0  0  0  0
    0.0000    0.0000    0.0000 C   0  0  0  0  0  0  0  0  0  0  0  0
   -0.4886    0.8463    0.0000 C   0  0  0  0  0  0  0  0  0  0  0  0
    0.0000    1.6927    0.0000 O   0  0  0  0  0  0  0  0  0  0  0  0
   -1.4659    0.8463    0.0000 O   0  0  0  0  0  0  0  0  0  0  0  0
   -1.9545    1.6927    0.0000 C   0  0  0  0  0  0  0  0  0  0  0  0
   -0.4886   -0.8463    0.0000 C   0  0  0  0  0  0  0  0  0  0  0  0
   -1.4659   -0.8463    0.0000 C   0  0  0  0  0  0  0  0  0  0  0  0
   -1.9545   -1.6927    0.0000 C   0  0  0  0  0  0  0  0  0  0  0  0
   -2.9318   -1.6927    0.0000 C   0  0  0  0  0  0  0  0  0  0  0  0
   -3.4205   -2.5390    0.0000 C   0  0  0  0  0  0  0  0  0  0  0  0
   -2.9318   -3.3854    0.0000 C   0  0  0  0  0  0  0  0  0  0  0  0
   -3.4205   -4.2317    0.0000 C   0  0  0  0  0  0  0  0  0  0  0  0
   -4.3977   -4.2317    0.0000 C   0  0  0  0  0  0  0  0  0  0  0  0
   -4.8864   -3.3854    0.0000 C   0  0  0  0  0  0  0  0  0  0  0  0
   -4.3977   -2.5390    0.0000 C   0  0  0  0  0  0  0  0  0  0  0  0
   -1.9545   -3.3854    0.0000 C   0  0  0  0  0  0  0  0  0  0  0  0
   -1.4659   -2.5390    0.0000 C   0  0  0  0  0  0  0  0  0  0  0  0
   -1.9545    0.0000    0.0000 C   0  0  0  0  0  0  0  0  0  0  0  0
   -2.9318    0.0000    0.0000 O   0  0  0  0  0  0  0  0  0  0  0  0
    0.0000   -1.6927    0.0000 C   0  0  0  0  0  0  0  0  0  0  0  0
    2.8009   -1.4659    0.0000 C   0  0  0  0  0  0  0  0  0  0  0  0
    2.8009   -2.4432    0.0000 C   0  0  0  0  0  0  0  0  0  0  0  0
  1 39  2  0  0  0  0
  1  2  1  0  0  0  0
  2  3  2  0  0  0  0
  3  4  1  0  0  0  0
  4  5  1  0  0  0  0
  4 38  2  0  0  0  0
  5  6  1  0  0  0  0
  5 12  1  0  0  0  0
  5 18  2  0  0  0  0
  6 11  2  0  0  0  0
  6  7  1  0  0  0  0
  7  8  2  0  0  0  0
  8  9  1  0  0  0  0
  9 10  2  0  0  0  0
 10 11  1  0  0  0  0
 12 17  2  0  0  0  0
 12 13  1  0  0  0  0
 13 14  2  0  0  0  0
 14 15  1  0  0  0  0
 15 16  2  0  0  0  0
 16 17  1  0  0  0  0
 18 19  1  0  0  0  0
 18 23  1  0  0  0  0
 19 20  2  0  0  0  0
 19 21  1  0  0  0  0
 21 22  1  0  0  0  0
 23 24  2  0  0  0  0
 23 37  1  0  0  0  0
 24 25  1  0  0  0  0
 24 35  1  0  0  0  0
 25 34  2  0  0  0  0
 25 26  1  0  0  0  0
 26 27  2  0  0  0  0
 27 32  1  0  0  0  0
 27 28  1  0  0  0  0
 28 29  1  0  0  0  0
 28 33  2  0  0  0  0
 29 30  2  0  0  0  0
 30 31  1  0  0  0  0
 31 32  2  0  0  0  0
 33 34  1  0  0  0  0
 35 36  2  0  0  0  0
 38 39  1  0  0  0  0
M  END
> <NMREDATA_VERSION>
1.1

> <NMREDATA_LEVEL>
0

> <NMREDATA_SOLVENT>
CDCl3

> <NMREDATA_FORMULA>
C35H29O3P

> <NMREDATA_SMILES>
COC(=O)C(=P(c1ccccc1)(c1ccccc1)c1ccccc1)/C(=C(/c1ccc2c(c1)cccc2)\C=O)/C

> <NMREDATA_ASSIGNMENT>
P5, 18.60, 5

> <NMREDATA_1D_31P>
Larmor=162
18.60, L=P5

$$$$
