
 OpenBabel06112616482D

 32 35  0  0  1  0  0  0  0  0999 V2000
    5.4573   -1.3142    0.0000 C   0  0  0  0  0  0  0  0  0  0  0  0
    4.5327   -1.6146    0.0000 C   0  0  0  0  0  0  0  0  0  0  0  0
    4.3305   -2.5656    0.0000 C   0  0  0  0  0  0  0  0  0  0  0  0
    3.4059   -2.8660    0.0000 C   0  0  0  0  0  0  0  0  0  0  0  0
    2.6834   -2.2155    0.0000 C   0  0  0  0  0  0  0  0  0  0  0  0
    1.7588   -2.5159    0.0000 C   0  0  2  0  0  0  0  0  0  0  0  0
    1.4583   -3.4405    0.0000 C   0  0  0  0  0  0  0  0  0  0  0  0
    2.0298   -4.2271    0.0000 O   0  0  0  0  0  0  0  0  0  0  0  0
    0.4861   -3.4405    0.0000 N   0  0  0  0  0  0  0  0  0  0  0  0
   -0.0853   -4.2271    0.0000 C   0  0  0  0  0  0  0  0  0  0  0  0
    0.1857   -2.5159    0.0000 S   0  0  0  0  0  0  0  0  0  0  0  0
   -0.4649   -1.7934    0.0000 O   0  0  0  0  0  0  0  0  0  0  0  0
   -0.7653   -2.7180    0.0000 O   0  0  0  0  0  0  0  0  0  0  0  0
    0.9722   -1.9444    0.0000 C   0  0  1  0  0  0  0  0  0  0  0  0
    0.9722    0.0000    0.0000 P   0  0  0  0  0  0  0  0  0  0  0  0
    1.9444    0.0000    0.0000 O   0  0  0  0  0  0  0  0  0  0  0  0
    0.9722    0.9722    0.0000 C   0  0  0  0  0  0  0  0  0  0  0  0
    0.1303    1.4583    0.0000 C   0  0  0  0  0  0  0  0  0  0  0  0
    0.1303    2.4306    0.0000 C   0  0  0  0  0  0  0  0  0  0  0  0
    0.9722    2.9167    0.0000 C   0  0  0  0  0  0  0  0  0  0  0  0
    0.9722    3.8889    0.0000 F   0  0  0  0  0  0  0  0  0  0  0  0
    1.8142    2.4306    0.0000 C   0  0  0  0  0  0  0  0  0  0  0  0
    1.8142    1.4583    0.0000 C   0  0  0  0  0  0  0  0  0  0  0  0
    0.0000    0.0000    0.0000 C   0  0  0  0  0  0  0  0  0  0  0  0
   -0.4861   -0.8420    0.0000 C   0  0  0  0  0  0  0  0  0  0  0  0
   -1.4583   -0.8420    0.0000 C   0  0  0  0  0  0  0  0  0  0  0  0
   -1.9444    0.0000    0.0000 C   0  0  0  0  0  0  0  0  0  0  0  0
   -2.9167    0.0000    0.0000 F   0  0  0  0  0  0  0  0  0  0  0  0
   -1.4583    0.8420    0.0000 C   0  0  0  0  0  0  0  0  0  0  0  0
   -0.4861    0.8420    0.0000 C   0  0  0  0  0  0  0  0  0  0  0  0
    2.8855   -1.2645    0.0000 C   0  0  0  0  0  0  0  0  0  0  0  0
    3.8102   -0.9641    0.0000 C   0  0  0  0  0  0  0  0  0  0  0  0
  1  2  1  0  0  0  0
  2 32  2  0  0  0  0
  2  3  1  0  0  0  0
  3  4  2  0  0  0  0
  4  5  1  0  0  0  0
  5 31  2  0  0  0  0
  6  5  1  6  0  0  0
  6  7  1  0  0  0  0
  6 14  1  0  0  0  0
  7  8  2  0  0  0  0
  7  9  1  0  0  0  0
  9 10  1  0  0  0  0
  9 11  1  0  0  0  0
 11 12  2  0  0  0  0
 11 13  2  0  0  0  0
 11 14  1  0  0  0  0
 14 15  1  1  0  0  0
 15 16  2  0  0  0  0
 15 17  1  0  0  0  0
 15 24  1  0  0  0  0
 17 23  2  0  0  0  0
 17 18  1  0  0  0  0
 18 19  2  0  0  0  0
 19 20  1  0  0  0  0
 20 21  1  0  0  0  0
 20 22  2  0  0  0  0
 22 23  1  0  0  0  0
 24 30  2  0  0  0  0
 24 25  1  0  0  0  0
 25 26  2  0  0  0  0
 26 27  1  0  0  0  0
 27 28  1  0  0  0  0
 27 29  2  0  0  0  0
 29 30  1  0  0  0  0
 31 32  1  0  0  0  0
M  END
> <NMREDATA_VERSION>
1.1

> <NMREDATA_LEVEL>
0

> <NMREDATA_SOLVENT>
CDCl3

> <NMREDATA_FORMULA>
C23H20F2NO4PS

> <NMREDATA_SMILES>
Cc1ccc(cc1)[C@@H]1C(=O)N(S(=O)(=O)[C@H]1P(=O)(c1ccc(cc1)F)c1ccc(cc1)F)C

> <NMREDATA_ASSIGNMENT>
P15, 21.30, 15

> <NMREDATA_1D_31P>
Larmor=202
21.30, L=P15

$$$$
