
 OpenBabel06112616432D

 30 34  0  0  0  0  0  0  0  0999 V2000
    0.0000    0.9714    0.0000 C   0  0  0  0  0  0  0  0  0  0  0  0
   -0.8413    1.4571    0.0000 C   0  0  0  0  0  0  0  0  0  0  0  0
   -0.8413    2.4286    0.0000 O   0  0  0  0  0  0  0  0  0  0  0  0
   -2.5238    0.4857    0.0000 C   0  0  0  0  0  0  0  0  0  0  0  0
   -2.6254   -0.4804    0.0000 C   0  0  0  0  0  0  0  0  0  0  0  0
   -1.9035   -1.1304    0.0000 C   0  0  0  0  0  0  0  0  0  0  0  0
   -0.9796   -0.8302    0.0000 C   0  0  0  0  0  0  0  0  0  0  0  0
   -0.2577   -1.4802    0.0000 C   0  0  0  0  0  0  0  0  0  0  0  0
   -0.4597   -2.4304    0.0000 C   0  0  0  0  0  0  0  0  0  0  0  0
   -1.3835   -2.7306    0.0000 C   0  0  0  0  0  0  0  0  0  0  0  0
   -2.1054   -2.0806    0.0000 C   0  0  0  0  0  0  0  0  0  0  0  0
   -3.5756   -0.6824    0.0000 C   0  0  0  0  0  0  0  0  0  0  0  0
   -4.0613   -1.5236    0.0000 C   0  0  0  0  0  0  0  0  0  0  0  0
   -5.0327   -1.5236    0.0000 C   0  0  0  0  0  0  0  0  0  0  0  0
   -5.5184   -0.6824    0.0000 C   0  0  0  0  0  0  0  0  0  0  0  0
   -5.0327    0.1589    0.0000 C   0  0  0  0  0  0  0  0  0  0  0  0
   -4.0613    0.1589    0.0000 C   0  0  0  0  0  0  0  0  0  0  0  0
   -3.4113    0.8808    0.0000 P   0  0  3  0  0  0  0  0  0  0  0  0
   -3.1111    1.8047    0.0000 C   0  0  0  0  0  0  0  0  0  0  0  0
   -3.7611    2.5266    0.0000 C   0  0  0  0  0  0  0  0  0  0  0  0
   -3.4609    3.4505    0.0000 C   0  0  0  0  0  0  0  0  0  0  0  0
   -2.5107    3.6525    0.0000 C   0  0  0  0  0  0  0  0  0  0  0  0
   -1.8607    2.9306    0.0000 C   0  0  0  0  0  0  0  0  0  0  0  0
   -2.1609    2.0067    0.0000 C   0  0  0  0  0  0  0  0  0  0  0  0
   -4.0613    1.6027    0.0000 O   0  0  0  0  0  0  0  0  0  0  0  0
    0.8413    1.4571    0.0000 C   0  0  0  0  0  0  0  0  0  0  0  0
    1.6826    0.9714    0.0000 C   0  0  0  0  0  0  0  0  0  0  0  0
    1.6826    0.0000    0.0000 C   0  0  0  0  0  0  0  0  0  0  0  0
    0.8413   -0.4857    0.0000 C   0  0  0  0  0  0  0  0  0  0  0  0
    0.0000    0.0000    0.0000 C   0  0  0  0  0  0  0  0  0  0  0  0
  1 30  2  0  0  0  0
  1  2  1  0  0  0  0
  1 26  1  0  0  0  0
  2  3  2  0  0  0  0
  2  4  1  0  0  0  0
  4 18  1  0  0  0  0
  4  5  2  0  0  0  0
  5  6  1  0  0  0  0
  5 12  1  0  0  0  0
  6 11  2  0  0  0  0
  6  7  1  0  0  0  0
  7  8  2  0  0  0  0
  8  9  1  0  0  0  0
  9 10  2  0  0  0  0
 10 11  1  0  0  0  0
 12 17  2  0  0  0  0
 12 13  1  0  0  0  0
 13 14  2  0  0  0  0
 14 15  1  0  0  0  0
 15 16  2  0  0  0  0
 16 17  1  0  0  0  0
 17 18  1  0  0  0  0
 18 19  1  0  0  0  0
 18 25  2  0  0  0  0
 19 24  2  0  0  0  0
 19 20  1  0  0  0  0
 20 21  2  0  0  0  0
 21 22  1  0  0  0  0
 22 23  2  0  0  0  0
 23 24  1  0  0  0  0
 26 27  2  0  0  0  0
 27 28  1  0  0  0  0
 28 29  2  0  0  0  0
 29 30  1  0  0  0  0
M  END
> <NMREDATA_VERSION>
1.1

> <NMREDATA_LEVEL>
0

> <NMREDATA_SOLVENT>
CDCl3

> <NMREDATA_FORMULA>
C27H19O2P

> <NMREDATA_SMILES>
O=C(C1=C(c2ccccc2)c2c(P1(=O)c1ccccc1)cccc2)c1ccccc1

> <NMREDATA_ASSIGNMENT>
P18, 38.20, 18

> <NMREDATA_1D_31P>
Larmor=162
38.20, L=P18

$$$$
