
 OpenBabel06112616452D

 35 39  0  0  0  0  0  0  0  0999 V2000
   -4.3875   -1.1056    0.0000 C   0  0  0  0  0  0  0  0  0  0  0  0
   -3.9000   -1.9500    0.0000 O   0  0  0  0  0  0  0  0  0  0  0  0
   -2.9250   -1.9500    0.0000 C   0  0  0  0  0  0  0  0  0  0  0  0
   -2.4375   -1.1056    0.0000 C   0  0  0  0  0  0  0  0  0  0  0  0
   -1.4625   -1.1056    0.0000 C   0  0  0  0  0  0  0  0  0  0  0  0
   -0.9750   -1.9500    0.0000 C   0  0  0  0  0  0  0  0  0  0  0  0
    0.0000   -1.9500    0.0000 P   0  0  0  0  0  0  0  0  0  0  0  0
    0.0000   -2.9250    0.0000 O   0  0  0  0  0  0  0  0  0  0  0  0
    0.9750   -1.9500    0.0000 C   0  0  0  0  0  0  0  0  0  0  0  0
    1.4625   -1.1056    0.0000 C   0  0  0  0  0  0  0  0  0  0  0  0
    2.4375   -1.1056    0.0000 C   0  0  0  0  0  0  0  0  0  0  0  0
    2.9250   -1.9500    0.0000 C   0  0  0  0  0  0  0  0  0  0  0  0
    3.9000   -1.9500    0.0000 O   0  0  0  0  0  0  0  0  0  0  0  0
    4.3875   -1.1056    0.0000 C   0  0  0  0  0  0  0  0  0  0  0  0
    2.4375   -2.7944    0.0000 C   0  0  0  0  0  0  0  0  0  0  0  0
    1.4625   -2.7944    0.0000 C   0  0  0  0  0  0  0  0  0  0  0  0
    0.0000    0.0000    0.0000 N   0  0  0  0  0  0  0  0  0  0  0  0
    0.8444    0.4875    0.0000 C   0  0  0  0  0  0  0  0  0  0  0  0
    0.8444    1.4625    0.0000 C   0  0  0  0  0  0  0  0  0  0  0  0
    1.6887    1.9500    0.0000 C   0  0  0  0  0  0  0  0  0  0  0  0
    2.5331    1.4625    0.0000 C   0  0  0  0  0  0  0  0  0  0  0  0
    2.5331    0.4875    0.0000 C   0  0  0  0  0  0  0  0  0  0  0  0
    1.6887    0.0000    0.0000 C   0  0  0  0  0  0  0  0  0  0  0  0
   -0.8444    0.4875    0.0000 C   0  0  0  0  0  0  0  0  0  0  0  0
   -1.6887    0.0000    0.0000 C   0  0  0  0  0  0  0  0  0  0  0  0
   -2.5331    0.4875    0.0000 C   0  0  0  0  0  0  0  0  0  0  0  0
   -2.5331    1.4625    0.0000 C   0  0  0  0  0  0  0  0  0  0  0  0
   -1.6887    1.9500    0.0000 C   0  0  0  0  0  0  0  0  0  0  0  0
   -1.6887    2.9250    0.0000 C   0  0  0  0  0  0  0  0  0  0  0  0
   -0.8444    3.4125    0.0000 C   0  0  0  0  0  0  0  0  0  0  0  0
    0.0000    2.9250    0.0000 C   0  0  0  0  0  0  0  0  0  0  0  0
    0.0000    1.9500    0.0000 N   0  0  0  0  0  0  0  0  0  0  0  0
   -0.8444    1.4625    0.0000 C   0  0  0  0  0  0  0  0  0  0  0  0
   -1.4625   -2.7944    0.0000 C   0  0  0  0  0  0  0  0  0  0  0  0
   -2.4375   -2.7944    0.0000 C   0  0  0  0  0  0  0  0  0  0  0  0
  1  2  1  0  0  0  0
  2  3  1  0  0  0  0
  3 35  2  0  0  0  0
  3  4  1  0  0  0  0
  4  5  2  0  0  0  0
  5  6  1  0  0  0  0
  6  7  1  0  0  0  0
  6 34  2  0  0  0  0
  7  8  2  0  0  0  0
  7  9  1  0  0  0  0
  7 17  1  0  0  0  0
  9 16  2  0  0  0  0
  9 10  1  0  0  0  0
 10 11  2  0  0  0  0
 11 12  1  0  0  0  0
 12 13  1  0  0  0  0
 12 15  2  0  0  0  0
 13 14  1  0  0  0  0
 15 16  1  0  0  0  0
 17 18  1  0  0  0  0
 17 24  1  0  0  0  0
 18 23  2  0  0  0  0
 18 19  1  0  0  0  0
 19 20  2  0  0  0  0
 20 21  1  0  0  0  0
 21 22  2  0  0  0  0
 22 23  1  0  0  0  0
 24 33  2  0  0  0  0
 24 25  1  0  0  0  0
 25 26  2  0  0  0  0
 26 27  1  0  0  0  0
 27 28  2  0  0  0  0
 28 33  1  0  0  0  0
 28 29  1  0  0  0  0
 29 30  2  0  0  0  0
 30 31  1  0  0  0  0
 31 32  2  0  0  0  0
 32 33  1  0  0  0  0
 34 35  1  0  0  0  0
M  END
> <NMREDATA_VERSION>
1.1

> <NMREDATA_LEVEL>
0

> <NMREDATA_SOLVENT>
CDCl3

> <NMREDATA_FORMULA>
C29H25N2O3P

> <NMREDATA_SMILES>
COc1ccc(cc1)P(=O)(N(c1cccc2c1nccc2)c1ccccc1)c1ccc(cc1)OC

> <NMREDATA_ASSIGNMENT>
P7, 25.50, 7

> <NMREDATA_1D_31P>
Larmor=162
25.50, L=P7

$$$$
