
 OpenBabel06112616432D

 31 34  0  0  0  0  0  0  0  0999 V2000
   -2.2137    0.7384    0.0000 C   0  0  0  0  0  0  0  0  0  0  0  0
   -2.5138   -0.1855    0.0000 C   0  0  0  0  0  0  0  0  0  0  0  0
   -1.9429   -0.9714    0.0000 C   0  0  0  0  0  0  0  0  0  0  0  0
    0.0000   -0.9714    0.0000 P   0  0  0  0  0  0  0  0  0  0  0  0
    0.0000   -1.9429    0.0000 O   0  0  0  0  0  0  0  0  0  0  0  0
    0.9714   -0.9714    0.0000 C   0  0  0  0  0  0  0  0  0  0  0  0
    1.4571   -0.1301    0.0000 C   0  0  0  0  0  0  0  0  0  0  0  0
    2.4286   -0.1301    0.0000 C   0  0  0  0  0  0  0  0  0  0  0  0
    2.9143   -0.9714    0.0000 C   0  0  0  0  0  0  0  0  0  0  0  0
    2.4286   -1.8127    0.0000 C   0  0  0  0  0  0  0  0  0  0  0  0
    1.4571   -1.8127    0.0000 C   0  0  0  0  0  0  0  0  0  0  0  0
    0.0000    0.0000    0.0000 C   0  0  0  0  0  0  0  0  0  0  0  0
   -0.8413    0.4857    0.0000 C   0  0  0  0  0  0  0  0  0  0  0  0
   -0.8413    1.4571    0.0000 C   0  0  0  0  0  0  0  0  0  0  0  0
    0.0000    1.9429    0.0000 C   0  0  0  0  0  0  0  0  0  0  0  0
    0.8413    1.4571    0.0000 C   0  0  0  0  0  0  0  0  0  0  0  0
    0.8413    0.4857    0.0000 C   0  0  0  0  0  0  0  0  0  0  0  0
   -2.5138   -1.7573    0.0000 N   0  0  0  0  0  0  0  0  0  0  0  0
   -2.2137   -2.6812    0.0000 C   0  0  0  0  0  0  0  0  0  0  0  0
   -1.2635   -2.8832    0.0000 O   0  0  0  0  0  0  0  0  0  0  0  0
   -2.8637   -3.4031    0.0000 O   0  0  0  0  0  0  0  0  0  0  0  0
   -3.8139   -3.2012    0.0000 C   0  0  0  0  0  0  0  0  0  0  0  0
   -4.5358   -2.5511    0.0000 C   0  0  0  0  0  0  0  0  0  0  0  0
   -3.6119   -2.2510    0.0000 C   0  0  0  0  0  0  0  0  0  0  0  0
   -4.4639   -3.9231    0.0000 C   0  0  0  0  0  0  0  0  0  0  0  0
   -3.4377   -1.4571    0.0000 C   0  0  0  0  0  0  0  0  0  0  0  0
   -4.2790   -1.9429    0.0000 C   0  0  0  0  0  0  0  0  0  0  0  0
   -5.1203   -1.4571    0.0000 C   0  0  0  0  0  0  0  0  0  0  0  0
   -5.1203   -0.4857    0.0000 C   0  0  0  0  0  0  0  0  0  0  0  0
   -4.2790    0.0000    0.0000 C   0  0  0  0  0  0  0  0  0  0  0  0
   -3.4377   -0.4857    0.0000 C   0  0  0  0  0  0  0  0  0  0  0  0
  1  2  1  0  0  0  0
  2 31  1  0  0  0  0
  2  3  2  0  0  0  0
  3  4  1  0  0  0  0
  3 18  1  0  0  0  0
  4  5  2  0  0  0  0
  4  6  1  0  0  0  0
  4 12  1  0  0  0  0
  6 11  2  0  0  0  0
  6  7  1  0  0  0  0
  7  8  2  0  0  0  0
  8  9  1  0  0  0  0
  9 10  2  0  0  0  0
 10 11  1  0  0  0  0
 12 17  2  0  0  0  0
 12 13  1  0  0  0  0
 13 14  2  0  0  0  0
 14 15  1  0  0  0  0
 15 16  2  0  0  0  0
 16 17  1  0  0  0  0
 18 19  1  0  0  0  0
 18 26  1  0  0  0  0
 19 20  2  0  0  0  0
 19 21  1  0  0  0  0
 21 22  1  0  0  0  0
 22 23  1  0  0  0  0
 22 24  1  0  0  0  0
 22 25  1  0  0  0  0
 26 31  2  0  0  0  0
 26 27  1  0  0  0  0
 27 28  2  0  0  0  0
 28 29  1  0  0  0  0
 29 30  2  0  0  0  0
 30 31  1  0  0  0  0
M  END
> <NMREDATA_VERSION>
1.1

> <NMREDATA_LEVEL>
0

> <NMREDATA_SOLVENT>
CDCl3

> <NMREDATA_FORMULA>
C26H26NO3P

> <NMREDATA_SMILES>
O=C(n1c2ccccc2c(c1P(=O)(c1ccccc1)c1ccccc1)C)OC(C)(C)C

> <NMREDATA_ASSIGNMENT>
P4, 21.30, 4

> <NMREDATA_1D_31P>
Larmor=162
21.30, L=P4

$$$$
