
 OpenBabel06112616432D

 29 32  0  0  0  0  0  0  0  0999 V2000
    0.9697   -3.8788    0.0000 C   0  0  0  0  0  0  0  0  0  0  0  0
    0.9697   -2.9091    0.0000 C   0  0  0  0  0  0  0  0  0  0  0  0
    0.1299   -2.4242    0.0000 C   0  0  0  0  0  0  0  0  0  0  0  0
    0.1299   -1.4545    0.0000 C   0  0  0  0  0  0  0  0  0  0  0  0
    0.9697   -0.9697    0.0000 C   0  0  0  0  0  0  0  0  0  0  0  0
    0.9697    0.0000    0.0000 P   0  0  0  0  0  0  0  0  0  0  0  0
    2.9091    0.0000    0.0000 N   0  0  0  0  0  0  0  0  0  0  0  0
    3.3939    0.8398    0.0000 C   0  0  0  0  0  0  0  0  0  0  0  0
    2.9091    1.6796    0.0000 O   0  0  0  0  0  0  0  0  0  0  0  0
    4.3636    0.8398    0.0000 C   0  0  0  0  0  0  0  0  0  0  0  0
    4.8485    0.0000    0.0000 C   0  0  0  0  0  0  0  0  0  0  0  0
    5.8182    0.0000    0.0000 C   0  0  0  0  0  0  0  0  0  0  0  0
    6.3030    0.8398    0.0000 C   0  0  0  0  0  0  0  0  0  0  0  0
    5.8182    1.6796    0.0000 C   0  0  0  0  0  0  0  0  0  0  0  0
    4.8485    1.6796    0.0000 C   0  0  0  0  0  0  0  0  0  0  0  0
    0.9697    0.9697    0.0000 C   0  0  0  0  0  0  0  0  0  0  0  0
    0.1299    1.4545    0.0000 C   0  0  0  0  0  0  0  0  0  0  0  0
    0.1299    2.4242    0.0000 C   0  0  0  0  0  0  0  0  0  0  0  0
    0.9697    2.9091    0.0000 C   0  0  0  0  0  0  0  0  0  0  0  0
    1.8095    2.4242    0.0000 C   0  0  0  0  0  0  0  0  0  0  0  0
    1.8095    1.4545    0.0000 C   0  0  0  0  0  0  0  0  0  0  0  0
    0.0000    0.0000    0.0000 C   0  0  0  0  0  0  0  0  0  0  0  0
   -0.4848   -0.8398    0.0000 C   0  0  0  0  0  0  0  0  0  0  0  0
   -1.4545   -0.8398    0.0000 C   0  0  0  0  0  0  0  0  0  0  0  0
   -1.9394    0.0000    0.0000 C   0  0  0  0  0  0  0  0  0  0  0  0
   -1.4545    0.8398    0.0000 C   0  0  0  0  0  0  0  0  0  0  0  0
   -0.4848    0.8398    0.0000 C   0  0  0  0  0  0  0  0  0  0  0  0
    1.8095   -1.4545    0.0000 C   0  0  0  0  0  0  0  0  0  0  0  0
    1.8095   -2.4242    0.0000 C   0  0  0  0  0  0  0  0  0  0  0  0
  1  2  1  0  0  0  0
  2 29  2  0  0  0  0
  2  3  1  0  0  0  0
  3  4  2  0  0  0  0
  4  5  1  0  0  0  0
  5  6  1  0  0  0  0
  5 28  2  0  0  0  0
  6  7  2  0  0  0  0
  6 16  1  0  0  0  0
  6 22  1  0  0  0  0
  7  8  1  0  0  0  0
  8  9  2  0  0  0  0
  8 10  1  0  0  0  0
 10 15  2  0  0  0  0
 10 11  1  0  0  0  0
 11 12  2  0  0  0  0
 12 13  1  0  0  0  0
 13 14  2  0  0  0  0
 14 15  1  0  0  0  0
 16 21  2  0  0  0  0
 16 17  1  0  0  0  0
 17 18  2  0  0  0  0
 18 19  1  0  0  0  0
 19 20  2  0  0  0  0
 20 21  1  0  0  0  0
 22 27  2  0  0  0  0
 22 23  1  0  0  0  0
 23 24  2  0  0  0  0
 24 25  1  0  0  0  0
 25 26  2  0  0  0  0
 26 27  1  0  0  0  0
 28 29  1  0  0  0  0
M  END
> <NMREDATA_VERSION>
1.1

> <NMREDATA_LEVEL>
0

> <NMREDATA_SOLVENT>
CDCl3

> <NMREDATA_FORMULA>
C26H22NOP

> <NMREDATA_SMILES>
Cc1ccc(cc1)P(=NC(=O)c1ccccc1)(c1ccccc1)c1ccccc1

> <NMREDATA_ASSIGNMENT>
P6, 20.97, 6

> <NMREDATA_1D_31P>
Larmor=162
20.97, L=P6

$$$$
