
 OpenBabel06112616422D

 32 36  0  0  0  0  0  0  0  0999 V2000
   -0.7992   -0.9357    0.0000 C   0  0  0  0  0  0  0  0  0  0  0  0
   -0.9474    0.0000    0.0000 C   0  0  0  0  0  0  0  0  0  0  0  0
   -1.8939    0.0409    0.0000 C   0  0  0  0  0  0  0  0  0  0  0  0
   -1.2401    0.9010    0.0000 O   0  0  0  0  0  0  0  0  0  0  0  0
   -0.4737    1.4579    0.0000 B   0  0  0  0  0  0  0  0  0  0  0  0
   -0.4737    3.3526    0.0000 C   0  0  0  0  0  0  0  0  0  0  0  0
    0.3468    3.8263    0.0000 C   0  0  0  0  0  0  0  0  0  0  0  0
    0.3468    4.7736    0.0000 C   0  0  0  0  0  0  0  0  0  0  0  0
   -0.4737    5.2473    0.0000 C   0  0  0  0  0  0  0  0  0  0  0  0
   -1.2941    4.7736    0.0000 C   0  0  0  0  0  0  0  0  0  0  0  0
   -1.2941    3.8263    0.0000 C   0  0  0  0  0  0  0  0  0  0  0  0
   -2.9350    2.8789    0.0000 P   0  0  3  0  0  0  0  0  0  0  0  0
   -2.9350    1.9315    0.0000 C   0  0  0  0  0  0  0  0  0  0  0  0
   -3.7555    1.4579    0.0000 C   0  0  0  0  0  0  0  0  0  0  0  0
   -3.7555    0.5105    0.0000 C   0  0  0  0  0  0  0  0  0  0  0  0
   -2.9350    0.0368    0.0000 C   0  0  0  0  0  0  0  0  0  0  0  0
   -2.1146    0.5105    0.0000 C   0  0  0  0  0  0  0  0  0  0  0  0
   -2.1146    1.4579    0.0000 C   0  0  0  0  0  0  0  0  0  0  0  0
   -3.7555    3.3526    0.0000 C   0  0  0  0  0  0  0  0  0  0  0  0
   -3.7555    4.3000    0.0000 C   0  0  0  0  0  0  0  0  0  0  0  0
   -4.5759    4.7736    0.0000 C   0  0  0  0  0  0  0  0  0  0  0  0
   -5.3964    4.3000    0.0000 C   0  0  0  0  0  0  0  0  0  0  0  0
   -5.3964    3.3526    0.0000 C   0  0  0  0  0  0  0  0  0  0  0  0
   -6.2168    2.8789    0.0000 C   0  0  0  0  0  0  0  0  0  0  0  0
   -6.2168    1.9315    0.0000 C   0  0  0  0  0  0  0  0  0  0  0  0
   -5.3964    1.4579    0.0000 C   0  0  0  0  0  0  0  0  0  0  0  0
   -4.5759    1.9315    0.0000 C   0  0  0  0  0  0  0  0  0  0  0  0
   -4.5759    2.8789    0.0000 C   0  0  0  0  0  0  0  0  0  0  0  0
    0.2928    0.9010    0.0000 O   0  0  0  0  0  0  0  0  0  0  0  0
    0.0000    0.0000    0.0000 C   0  0  0  0  0  0  0  0  0  0  0  0
    0.0990   -0.9422    0.0000 C   0  0  0  0  0  0  0  0  0  0  0  0
    0.8655   -0.3853    0.0000 C   0  0  0  0  0  0  0  0  0  0  0  0
  1  2  1  0  0  0  0
  2 30  1  0  0  0  0
  2  3  1  0  0  0  0
  2  4  1  0  0  0  0
  4  5  1  0  0  0  0
  5  6  1  0  0  0  0
  5 29  1  0  0  0  0
  6 11  2  0  0  0  0
  6  7  1  0  0  0  0
  7  8  2  0  0  0  0
  8  9  1  0  0  0  0
  9 10  2  0  0  0  0
 10 11  1  0  0  0  0
 11 12  1  0  0  0  0
 12 13  1  0  0  0  0
 12 19  1  0  0  0  0
 13 18  2  0  0  0  0
 13 14  1  0  0  0  0
 14 15  2  0  0  0  0
 15 16  1  0  0  0  0
 16 17  2  0  0  0  0
 17 18  1  0  0  0  0
 19 28  2  0  0  0  0
 19 20  1  0  0  0  0
 20 21  2  0  0  0  0
 21 22  1  0  0  0  0
 22 23  2  0  0  0  0
 23 28  1  0  0  0  0
 23 24  1  0  0  0  0
 24 25  2  0  0  0  0
 25 26  1  0  0  0  0
 26 27  2  0  0  0  0
 27 28  1  0  0  0  0
 29 30  1  0  0  0  0
 30 31  1  0  0  0  0
 30 32  1  0  0  0  0
M  END
> <NMREDATA_VERSION>
1.1

> <NMREDATA_LEVEL>
0

> <NMREDATA_FORMULA>
C28H28BO2P

> <NMREDATA_SMILES>
CC1(C)OB(OC1(C)C)c1ccccc1P(c1cccc2c1cccc2)c1ccccc1

> <NMREDATA_ASSIGNMENT>
P12, -13.70, 12

> <NMREDATA_1D_31P>
Larmor=200
-13.70, L=P12

$$$$
