
 OpenBabel06112616452D

 31 33  0  0  0  0  0  0  0  0999 V2000
    8.0671    1.5544    0.0000 C   0  0  0  0  0  0  0  0  0  0  0  0
    7.4793    0.7454    0.0000 C   0  0  0  0  0  0  0  0  0  0  0  0
    6.8916   -0.0636    0.0000 C   0  0  0  0  0  0  0  0  0  0  0  0
    7.2983   -0.9772    0.0000 C   0  0  0  0  0  0  0  0  0  0  0  0
    6.7105   -1.7862    0.0000 C   0  0  0  0  0  0  0  0  0  0  0  0
    5.7160   -1.6817    0.0000 C   0  0  0  0  0  0  0  0  0  0  0  0
    5.3092   -0.7681    0.0000 C   0  0  0  0  0  0  0  0  0  0  0  0
    4.3147   -0.6636    0.0000 C   0  0  0  0  0  0  0  0  0  0  0  0
    3.6456   -1.4067    0.0000 C   0  0  0  0  0  0  0  0  0  0  0  0
    2.7321   -1.0000    0.0000 N   0  0  0  0  0  0  0  0  0  0  0  0
    1.8660   -1.5000    0.0000 C   0  0  0  0  0  0  0  0  0  0  0  0
    1.8660   -2.5000    0.0000 C   0  0  0  0  0  0  0  0  0  0  0  0
    1.0000   -3.0000    0.0000 C   0  0  0  0  0  0  0  0  0  0  0  0
    0.1340   -2.5000    0.0000 C   0  0  0  0  0  0  0  0  0  0  0  0
    0.1340   -1.5000    0.0000 C   0  0  0  0  0  0  0  0  0  0  0  0
    1.0000   -1.0000    0.0000 C   0  0  0  0  0  0  0  0  0  0  0  0
    1.0000    0.0000    0.0000 P   0  0  0  0  0  0  0  0  0  0  0  0
    2.0000    0.0000    0.0000 O   0  0  0  0  0  0  0  0  0  0  0  0
    1.0000    1.0000    0.0000 N   0  0  0  0  0  0  0  0  0  0  0  0
    1.8660    1.5000    0.0000 C   0  0  0  0  0  0  0  0  0  0  0  0
    1.8660    2.5000    0.0000 C   0  0  0  0  0  0  0  0  0  0  0  0
    0.1340    1.5000    0.0000 C   0  0  0  0  0  0  0  0  0  0  0  0
    0.1340    2.5000    0.0000 C   0  0  0  0  0  0  0  0  0  0  0  0
    0.0000    0.0000    0.0000 N   0  0  0  0  0  0  0  0  0  0  0  0
   -0.5000    0.8660    0.0000 C   0  0  0  0  0  0  0  0  0  0  0  0
   -1.5000    0.8660    0.0000 C   0  0  0  0  0  0  0  0  0  0  0  0
   -0.5000   -0.8660    0.0000 C   0  0  0  0  0  0  0  0  0  0  0  0
   -1.5000   -0.8660    0.0000 C   0  0  0  0  0  0  0  0  0  0  0  0
    2.8366   -0.0055    0.0000 N   0  0  0  0  0  0  0  0  0  0  0  0
    3.8147    0.2024    0.0000 N   0  0  0  0  0  0  0  0  0  0  0  0
    5.8970    0.0409    0.0000 C   0  0  0  0  0  0  0  0  0  0  0  0
  1  2  3  0  0  0  0
  2  3  1  0  0  0  0
  3 31  2  0  0  0  0
  3  4  1  0  0  0  0
  4  5  2  0  0  0  0
  5  6  1  0  0  0  0
  6  7  2  0  0  0  0
  7  8  1  0  0  0  0
  7 31  1  0  0  0  0
  8 30  1  0  0  0  0
  8  9  2  0  0  0  0
  9 10  1  0  0  0  0
 10 11  1  0  0  0  0
 10 29  1  0  0  0  0
 11 16  2  0  0  0  0
 11 12  1  0  0  0  0
 12 13  2  0  0  0  0
 13 14  1  0  0  0  0
 14 15  2  0  0  0  0
 15 16  1  0  0  0  0
 16 17  1  0  0  0  0
 17 18  2  0  0  0  0
 17 19  1  0  0  0  0
 17 24  1  0  0  0  0
 19 20  1  0  0  0  0
 19 22  1  0  0  0  0
 20 21  1  0  0  0  0
 22 23  1  0  0  0  0
 24 25  1  0  0  0  0
 24 27  1  0  0  0  0
 25 26  1  0  0  0  0
 27 28  1  0  0  0  0
 29 30  2  0  0  0  0
M  END
> <NMREDATA_VERSION>
1.1

> <NMREDATA_LEVEL>
0

> <NMREDATA_FORMULA>
C24H30N5OP

> <NMREDATA_SMILES>
C#Cc1cccc(c1)c1nnn(c1)c1ccccc1P(=O)(N(CC)CC)N(CC)CC

> <NMREDATA_ASSIGNMENT>
P17, 27.76, 17

> <NMREDATA_1D_31P>
Larmor=121.49
27.76, L=P17

$$$$
