
 OpenBabel06112616452D

 39 43  0  0  0  0  0  0  0  0999 V2000
   -5.1868   -0.6957    0.0000 C   0  0  0  0  0  0  0  0  0  0  0  0
   -4.2574   -0.9976    0.0000 C   0  0  0  0  0  0  0  0  0  0  0  0
   -3.5311   -0.3437    0.0000 C   0  0  0  0  0  0  0  0  0  0  0  0
   -2.6017   -0.6457    0.0000 C   0  0  0  0  0  0  0  0  0  0  0  0
   -2.3985   -1.6016    0.0000 C   0  0  0  0  0  0  0  0  0  0  0  0
   -1.4691   -1.9036    0.0000 C   0  0  0  0  0  0  0  0  0  0  0  0
   -1.0627   -3.8155    0.0000 C   0  0  0  0  0  0  0  0  0  0  0  0
   -1.7889   -4.4694    0.0000 N   0  0  0  0  0  0  0  0  0  0  0  0
   -2.7184   -4.1674    0.0000 C   0  0  0  0  0  0  0  0  0  0  0  0
   -0.1332   -4.1175    0.0000 O   0  0  0  0  0  0  0  0  0  0  0  0
   -0.7428   -1.2497    0.0000 C   0  0  0  0  0  0  0  0  0  0  0  0
    0.1866   -1.5517    0.0000 N   0  0  0  0  0  0  0  0  0  0  0  0
    0.9773   -0.9773    0.0000 C   0  0  0  0  0  0  0  0  0  0  0  0
    0.9773    0.0000    0.0000 P   0  0  0  0  0  0  0  0  0  0  0  0
    1.9545    0.0000    0.0000 O   0  0  0  0  0  0  0  0  0  0  0  0
    2.4432    0.8463    0.0000 C   0  0  0  0  0  0  0  0  0  0  0  0
    3.4205    0.8463    0.0000 C   0  0  0  0  0  0  0  0  0  0  0  0
    0.9773    0.9773    0.0000 O   0  0  0  0  0  0  0  0  0  0  0  0
    1.8236    1.4659    0.0000 C   0  0  0  0  0  0  0  0  0  0  0  0
    1.8236    2.4432    0.0000 C   0  0  0  0  0  0  0  0  0  0  0  0
    0.0000    0.0000    0.0000 O   0  0  0  0  0  0  0  0  0  0  0  0
    1.7679   -1.5517    0.0000 C   0  0  0  0  0  0  0  0  0  0  0  0
    1.4659   -2.4811    0.0000 C   0  0  0  0  0  0  0  0  0  0  0  0
    1.9545   -3.3275    0.0000 C   0  0  0  0  0  0  0  0  0  0  0  0
    1.4659   -4.1738    0.0000 C   0  0  0  0  0  0  0  0  0  0  0  0
    0.4886   -4.1738    0.0000 C   0  0  0  0  0  0  0  0  0  0  0  0
    0.0000   -3.3275    0.0000 C   0  0  0  0  0  0  0  0  0  0  0  0
    0.4886   -2.4811    0.0000 C   0  0  0  0  0  0  0  0  0  0  0  0
   -0.9460   -0.2938    0.0000 C   0  0  0  0  0  0  0  0  0  0  0  0
   -0.2921    0.4325    0.0000 C   0  0  0  0  0  0  0  0  0  0  0  0
   -0.7807    1.2788    0.0000 C   0  0  0  0  0  0  0  0  0  0  0  0
   -0.4787    2.2083    0.0000 C   0  0  0  0  0  0  0  0  0  0  0  0
   -1.1326    2.9345    0.0000 C   0  0  0  0  0  0  0  0  0  0  0  0
   -2.0885    2.7313    0.0000 C   0  0  0  0  0  0  0  0  0  0  0  0
   -2.3905    1.8019    0.0000 C   0  0  0  0  0  0  0  0  0  0  0  0
   -1.7366    1.0756    0.0000 C   0  0  0  0  0  0  0  0  0  0  0  0
   -1.8388    0.1037    0.0000 N   0  0  0  0  0  0  0  0  0  0  0  0
   -3.1248   -2.2556    0.0000 C   0  0  0  0  0  0  0  0  0  0  0  0
   -4.0542   -1.9536    0.0000 C   0  0  0  0  0  0  0  0  0  0  0  0
  1  2  1  0  0  0  0
  2 39  2  0  0  0  0
  2  3  1  0  0  0  0
  3  4  2  0  0  0  0
  4  5  1  0  0  0  0
  5  6  1  0  0  0  0
  5 38  2  0  0  0  0
  6  7  1  0  0  0  0
  6 11  2  0  0  0  0
  7  8  1  0  0  0  0
  7 10  2  0  0  0  0
  8  9  1  0  0  0  0
 11 12  1  0  0  0  0
 11 29  1  0  0  0  0
 12 28  1  0  0  0  0
 12 13  1  0  0  0  0
 13 14  1  0  0  0  0
 13 22  2  0  0  0  0
 14 15  1  0  0  0  0
 14 18  1  0  0  0  0
 14 21  2  0  0  0  0
 15 16  1  0  0  0  0
 16 17  1  0  0  0  0
 18 19  1  0  0  0  0
 19 20  1  0  0  0  0
 22 23  1  0  0  0  0
 23 28  2  0  0  0  0
 23 24  1  0  0  0  0
 24 25  2  0  0  0  0
 25 26  1  0  0  0  0
 26 27  2  0  0  0  0
 27 28  1  0  0  0  0
 29 37  1  0  0  0  0
 29 30  2  0  0  0  0
 30 31  1  0  0  0  0
 31 36  2  0  0  0  0
 31 32  1  0  0  0  0
 32 33  2  0  0  0  0
 33 34  1  0  0  0  0
 34 35  2  0  0  0  0
 35 36  1  0  0  0  0
 36 37  1  0  0  0  0
 38 39  1  0  0  0  0
M  END
> <NMREDATA_VERSION>
1.1

> <NMREDATA_LEVEL>
0

> <NMREDATA_SOLVENT>
DMSO-d6

> <NMREDATA_FORMULA>
C31H32N3O4P

> <NMREDATA_SMILES>
CCOP(=O)(c1cc2c(n1/C(=C(/c1ccc(cc1)C)\C(=O)NC)/c1cc3c([nH]1)cccc3)cccc2)OCC

> <NMREDATA_ASSIGNMENT>
P14, 7.70, 14

> <NMREDATA_1D_31P>
Larmor=162
7.70, L=P14

$$$$
