
 OpenBabel06112616432D

 49 56  0  0  1  0  0  0  0  0999 V2000
   -3.6026   -2.4788    0.0000 C   0  0  0  0  0  0  0  0  0  0  0  0
   -4.5583   -2.3530    0.0000 F   0  0  0  0  0  0  0  0  0  0  0  0
   -4.1894   -3.2436    0.0000 F   0  0  0  0  0  0  0  0  0  0  0  0
   -3.4767   -1.5231    0.0000 F   0  0  0  0  0  0  0  0  0  0  0  0
   -2.0730   -3.6525    0.0000 C   0  0  0  0  0  0  0  0  0  0  0  0
   -2.1682   -4.3759    0.0000 C   0  0  0  0  0  0  0  0  0  0  0  0
   -1.5894   -4.8200    0.0000 C   0  0  0  0  0  0  0  0  0  0  0  0
   -0.9154   -4.5408    0.0000 C   0  0  0  0  0  0  0  0  0  0  0  0
   -0.8201   -3.8175    0.0000 C   0  0  0  0  0  0  0  0  0  0  0  0
   -1.3989   -3.3733    0.0000 C   0  0  0  0  0  0  0  0  0  0  0  0
   -0.2413   -3.3733    0.0000 N   0  0  0  0  0  0  0  0  0  0  0  0
    0.4820   -3.4686    0.0000 C   0  0  0  0  0  0  0  0  0  0  0  0
    1.4460   -1.7989    0.0000 C   0  0  0  0  0  0  0  0  0  0  0  0
    0.9640   -0.9640    0.0000 C   0  0  0  0  0  0  0  0  0  0  0  0
    0.0000   -0.9640    0.0000 P   0  0  0  0  0  0  0  0  0  0  0  0
    0.0000   -1.9280    0.0000 O   0  0  0  0  0  0  0  0  0  0  0  0
   -0.9640   -0.9640    0.0000 C   0  0  0  0  0  0  0  0  0  0  0  0
   -1.4460   -0.1292    0.0000 C   0  0  0  0  0  0  0  0  0  0  0  0
   -2.4100   -0.1292    0.0000 C   0  0  0  0  0  0  0  0  0  0  0  0
   -2.8920   -0.9640    0.0000 C   0  0  0  0  0  0  0  0  0  0  0  0
   -2.4100   -1.7989    0.0000 C   0  0  0  0  0  0  0  0  0  0  0  0
   -1.4460   -1.7989    0.0000 C   0  0  0  0  0  0  0  0  0  0  0  0
    0.0000    0.0000    0.0000 C   0  0  0  0  0  0  0  0  0  0  0  0
    0.8349    0.4820    0.0000 C   0  0  0  0  0  0  0  0  0  0  0  0
    0.8349    1.4460    0.0000 C   0  0  0  0  0  0  0  0  0  0  0  0
    0.0000    1.9280    0.0000 C   0  0  0  0  0  0  0  0  0  0  0  0
   -0.8349    1.4460    0.0000 C   0  0  0  0  0  0  0  0  0  0  0  0
   -0.8349    0.4820    0.0000 C   0  0  0  0  0  0  0  0  0  0  0  0
    1.4460   -0.1292    0.0000 C   0  0  0  0  0  0  0  0  0  0  0  0
    2.4100   -0.1292    0.0000 C   0  0  0  0  0  0  0  0  0  0  0  0
    2.8920   -0.9640    0.0000 C   0  0  0  0  0  0  0  0  0  0  0  0
    3.8560   -0.9640    0.0000 C   0  0  0  0  0  0  0  0  0  0  0  0
    4.3380   -1.7989    0.0000 C   0  0  0  0  0  0  0  0  0  0  0  0
    3.8560   -2.6337    0.0000 C   0  0  0  0  0  0  0  0  0  0  0  0
    2.8920   -2.6337    0.0000 C   0  0  0  0  0  0  0  0  0  0  0  0
    2.4100   -1.7989    0.0000 C   0  0  0  0  0  0  0  0  0  0  0  0
    0.9261   -4.0474    0.0000 C   0  0  0  0  0  0  0  0  0  0  0  0
    1.8740   -4.2231    0.0000 C   0  0  0  0  0  0  0  0  0  0  0  0
    1.9998   -5.1788    0.0000 N   0  0  0  0  0  0  0  0  0  0  0  0
    2.8470   -5.6388    0.0000 C   0  0  2  0  0  0  0  0  0  0  0  0
    2.8723   -6.6025    0.0000 C   0  0  0  0  0  0  0  0  0  0  0  0
    3.6690   -5.1351    0.0000 C   0  0  0  0  0  0  0  0  0  0  0  0
    4.5162   -5.5951    0.0000 O   0  0  0  0  0  0  0  0  0  0  0  0
    1.1297   -5.5938    0.0000 C   0  0  0  0  0  0  0  0  0  0  0  0
    0.8559   -6.5181    0.0000 C   0  0  0  0  0  0  0  0  0  0  0  0
   -0.0814   -6.7432    0.0000 C   0  0  0  0  0  0  0  0  0  0  0  0
   -0.7450   -6.0439    0.0000 C   0  0  0  0  0  0  0  0  0  0  0  0
   -0.4712   -5.1196    0.0000 C   0  0  0  0  0  0  0  0  0  0  0  0
    0.4662   -4.8946    0.0000 C   0  0  0  0  0  0  0  0  0  0  0  0
  1  2  1  0  0  0  0
  1  3  1  0  0  0  0
  1  4  1  0  0  0  0
  1  5  1  0  0  0  0
  5 10  2  0  0  0  0
  5  6  1  0  0  0  0
  6  7  2  0  0  0  0
  7  8  1  0  0  0  0
  8 48  1  0  0  0  0
  8  9  2  0  0  0  0
  9 10  1  0  0  0  0
  9 11  1  0  0  0  0
 11 12  2  0  0  0  0
 12 13  1  0  0  0  0
 12 37  1  0  0  0  0
 13 36  2  0  0  0  0
 13 14  1  0  0  0  0
 14 15  1  0  0  0  0
 14 29  2  0  0  0  0
 15 16  2  0  0  0  0
 15 17  1  0  0  0  0
 15 23  1  0  0  0  0
 17 22  2  0  0  0  0
 17 18  1  0  0  0  0
 18 19  2  0  0  0  0
 19 20  1  0  0  0  0
 20 21  2  0  0  0  0
 21 22  1  0  0  0  0
 23 28  2  0  0  0  0
 23 24  1  0  0  0  0
 24 25  2  0  0  0  0
 25 26  1  0  0  0  0
 26 27  2  0  0  0  0
 27 28  1  0  0  0  0
 29 30  1  0  0  0  0
 30 31  2  0  0  0  0
 31 36  1  0  0  0  0
 31 32  1  0  0  0  0
 32 33  2  0  0  0  0
 33 34  1  0  0  0  0
 34 35  2  0  0  0  0
 35 36  1  0  0  0  0
 37 49  1  0  0  0  0
 37 38  2  0  0  0  0
 38 39  1  0  0  0  0
 39 40  1  0  0  0  0
 39 44  1  0  0  0  0
 40 41  1  1  0  0  0
 40 42  1  0  0  0  0
 42 43  1  0  0  0  0
 44 49  2  0  0  0  0
 44 45  1  0  0  0  0
 45 46  2  0  0  0  0
 46 47  1  0  0  0  0
 47 48  2  0  0  0  0
 48 49  1  0  0  0  0
M  END
> <NMREDATA_VERSION>
1.1

> <NMREDATA_LEVEL>
0

> <NMREDATA_SOLVENT>
CDCl3

> <NMREDATA_FORMULA>
C41H30F3N2O2P

> <NMREDATA_SMILES>
OC[C@H](n1cc2c3c1cccc3-c1c(N=C2c2c3ccccc3ccc2P(=O)(c2ccccc2)c2ccccc2)cc(cc1)C(F)(F)F)C

> <NMREDATA_ASSIGNMENT>
P15, 31.10, 15

> <NMREDATA_1D_31P>
Larmor=162
31.10, L=P15

$$$$
