
 OpenBabel06112616472D

 26 28  0  0  0  0  0  0  0  0999 V2000
   -5.8531   -0.4828    0.0000 C   0  0  0  0  0  0  0  0  0  0  0  0
   -5.0170   -0.9655    0.0000 O   0  0  0  0  0  0  0  0  0  0  0  0
   -4.1808   -0.4828    0.0000 C   0  0  0  0  0  0  0  0  0  0  0  0
   -3.3446   -0.9655    0.0000 O   0  0  0  0  0  0  0  0  0  0  0  0
   -4.1808    0.4828    0.0000 C   0  0  0  0  0  0  0  0  0  0  0  0
   -5.0170    0.9655    0.0000 C   0  0  0  0  0  0  0  0  0  0  0  0
   -5.0170    1.9310    0.0000 C   0  0  0  0  0  0  0  0  0  0  0  0
   -4.1808    2.4138    0.0000 C   0  0  0  0  0  0  0  0  0  0  0  0
   -4.1808    3.3793    0.0000 C   0  0  0  0  0  0  0  0  0  0  0  0
   -3.3446    3.8621    0.0000 O   0  0  0  0  0  0  0  0  0  0  0  0
   -5.0170    3.8621    0.0000 O   0  0  0  0  0  0  0  0  0  0  0  0
   -3.3446    1.9310    0.0000 C   0  0  0  0  0  0  0  0  0  0  0  0
   -3.3446    0.9655    0.0000 C   0  0  0  0  0  0  0  0  0  0  0  0
   -1.6723    0.0000    0.0000 P   0  0  0  0  0  0  0  0  0  0  0  0
   -1.6723   -0.9655    0.0000 C   0  0  0  0  0  0  0  0  0  0  0  0
   -0.8362   -1.4483    0.0000 C   0  0  0  0  0  0  0  0  0  0  0  0
   -0.8362   -2.4138    0.0000 C   0  0  0  0  0  0  0  0  0  0  0  0
   -1.6723   -2.8966    0.0000 C   0  0  0  0  0  0  0  0  0  0  0  0
   -2.5085   -2.4138    0.0000 C   0  0  0  0  0  0  0  0  0  0  0  0
   -2.5085   -1.4483    0.0000 C   0  0  0  0  0  0  0  0  0  0  0  0
   -0.8362    0.4828    0.0000 C   0  0  0  0  0  0  0  0  0  0  0  0
   -0.8362    1.4483    0.0000 C   0  0  0  0  0  0  0  0  0  0  0  0
    0.0000    1.9310    0.0000 C   0  0  0  0  0  0  0  0  0  0  0  0
    0.8362    1.4483    0.0000 C   0  0  0  0  0  0  0  0  0  0  0  0
    0.8362    0.4828    0.0000 C   0  0  0  0  0  0  0  0  0  0  0  0
    0.0000    0.0000    0.0000 C   0  0  0  0  0  0  0  0  0  0  0  0
  1  2  1  0  0  0  0
  2  3  1  0  0  0  0
  3  4  2  0  0  0  0
  3  5  1  0  0  0  0
  5 13  2  0  0  0  0
  5  6  1  0  0  0  0
  6  7  2  0  0  0  0
  7  8  1  0  0  0  0
  8  9  1  0  0  0  0
  8 12  2  0  0  0  0
  9 10  2  0  0  0  0
  9 11  1  0  0  0  0
 12 13  1  0  0  0  0
 13 14  1  0  0  0  0
 14 15  1  0  0  0  0
 14 21  1  0  0  0  0
 15 20  2  0  0  0  0
 15 16  1  0  0  0  0
 16 17  2  0  0  0  0
 17 18  1  0  0  0  0
 18 19  2  0  0  0  0
 19 20  1  0  0  0  0
 21 26  2  0  0  0  0
 21 22  1  0  0  0  0
 22 23  2  0  0  0  0
 23 24  1  0  0  0  0
 24 25  2  0  0  0  0
 25 26  1  0  0  0  0
M  END
> <NMREDATA_VERSION>
1.1

> <NMREDATA_LEVEL>
0

> <NMREDATA_SOLVENT>
CDCl3

> <NMREDATA_FORMULA>
C21H17O4P

> <NMREDATA_SMILES>
COC(=O)c1ccc(cc1P(c1ccccc1)c1ccccc1)C(=O)O

> <NMREDATA_ASSIGNMENT>
P14, -3.32, 14

> <NMREDATA_1D_31P>
Larmor=162
-3.32, L=P14

$$$$
