
 OpenBabel06112616432D

 40 41  0  0  0  0  0  0  0  0999 V2000
    0.0000   -1.9070    0.0000 C   0  0  0  0  0  0  0  0  0  0  0  0
   -0.8257   -1.4302    0.0000 O   0  0  0  0  0  0  0  0  0  0  0  0
   -0.8257   -0.4767    0.0000 C   0  0  0  0  0  0  0  0  0  0  0  0
   -1.6515    0.0000    0.0000 C   0  0  0  0  0  0  0  0  0  0  0  0
   -3.3030   -0.9535    0.0000 O   0  0  0  0  0  0  0  0  0  0  0  0
   -3.3030   -1.9070    0.0000 P   0  0  0  0  0  0  0  0  0  0  0  0
   -2.4772   -2.3837    0.0000 C   0  0  0  0  0  0  0  0  0  0  0  0
   -1.6515   -1.9070    0.0000 C   0  0  0  0  0  0  0  0  0  0  0  0
   -2.4772   -3.3372    0.0000 C   0  0  0  0  0  0  0  0  0  0  0  0
   -4.1287   -2.3837    0.0000 C   0  0  0  0  0  0  0  0  0  0  0  0
   -4.1287   -3.3372    0.0000 C   0  0  0  0  0  0  0  0  0  0  0  0
   -4.9545   -1.9070    0.0000 C   0  0  0  0  0  0  0  0  0  0  0  0
   -1.6515    0.9535    0.0000 C   0  0  0  0  0  0  0  0  0  0  0  0
   -2.4772    1.4302    0.0000 C   0  0  0  0  0  0  0  0  0  0  0  0
   -3.3030    0.9535    0.0000 C   0  0  0  0  0  0  0  0  0  0  0  0
   -4.1287    1.4302    0.0000 C   0  0  0  0  0  0  0  0  0  0  0  0
   -4.9545    0.9535    0.0000 C   0  0  0  0  0  0  0  0  0  0  0  0
   -5.4312    0.1277    0.0000 C   0  0  0  0  0  0  0  0  0  0  0  0
   -4.4777    0.1277    0.0000 C   0  0  0  0  0  0  0  0  0  0  0  0
   -5.7802    1.4302    0.0000 C   0  0  0  0  0  0  0  0  0  0  0  0
   -4.1287    2.3837    0.0000 C   0  0  0  0  0  0  0  0  0  0  0  0
   -3.3030    2.8605    0.0000 C   0  0  0  0  0  0  0  0  0  0  0  0
   -3.3030    3.8140    0.0000 O   0  0  0  0  0  0  0  0  0  0  0  0
   -4.1287    4.2907    0.0000 C   0  0  0  0  0  0  0  0  0  0  0  0
   -2.4772    2.3837    0.0000 C   0  0  0  0  0  0  0  0  0  0  0  0
   -0.8257    3.3372    0.0000 O   0  0  0  0  0  0  0  0  0  0  0  0
   -0.8257    4.2907    0.0000 P   0  0  0  0  0  0  0  0  0  0  0  0
    0.0000    4.7674    0.0000 C   0  0  0  0  0  0  0  0  0  0  0  0
    0.8257    4.2907    0.0000 C   0  0  0  0  0  0  0  0  0  0  0  0
    0.0000    5.7209    0.0000 C   0  0  0  0  0  0  0  0  0  0  0  0
   -1.6515    4.7674    0.0000 C   0  0  0  0  0  0  0  0  0  0  0  0
   -1.6515    5.7209    0.0000 C   0  0  0  0  0  0  0  0  0  0  0  0
   -2.4772    4.2907    0.0000 C   0  0  0  0  0  0  0  0  0  0  0  0
   -0.8257    1.4302    0.0000 C   0  0  0  0  0  0  0  0  0  0  0  0
    0.0000    0.9535    0.0000 C   0  0  0  0  0  0  0  0  0  0  0  0
    0.8257    1.4302    0.0000 C   0  0  0  0  0  0  0  0  0  0  0  0
    1.3025    2.2560    0.0000 C   0  0  0  0  0  0  0  0  0  0  0  0
    0.3490    2.2560    0.0000 C   0  0  0  0  0  0  0  0  0  0  0  0
    1.6515    0.9535    0.0000 C   0  0  0  0  0  0  0  0  0  0  0  0
    0.0000    0.0000    0.0000 C   0  0  0  0  0  0  0  0  0  0  0  0
  1  2  1  0  0  0  0
  2  3  1  0  0  0  0
  3 40  2  0  0  0  0
  3  4  1  0  0  0  0
  4  5  1  0  0  0  0
  4 13  2  0  0  0  0
  5  6  1  0  0  0  0
  6  7  1  0  0  0  0
  6 10  1  0  0  0  0
  7  8  1  0  0  0  0
  7  9  1  0  0  0  0
 10 11  1  0  0  0  0
 10 12  1  0  0  0  0
 13 14  1  0  0  0  0
 13 34  1  0  0  0  0
 14 25  2  0  0  0  0
 14 15  1  0  0  0  0
 15 16  2  0  0  0  0
 16 17  1  0  0  0  0
 16 21  1  0  0  0  0
 17 18  1  0  0  0  0
 17 19  1  0  0  0  0
 17 20  1  0  0  0  0
 21 22  2  0  0  0  0
 22 23  1  0  0  0  0
 22 25  1  0  0  0  0
 23 24  1  0  0  0  0
 25 26  1  0  0  0  0
 26 27  1  0  0  0  0
 27 28  1  0  0  0  0
 27 31  1  0  0  0  0
 28 29  1  0  0  0  0
 28 30  1  0  0  0  0
 31 32  1  0  0  0  0
 31 33  1  0  0  0  0
 34 35  2  0  0  0  0
 35 36  1  0  0  0  0
 35 40  1  0  0  0  0
 36 37  1  0  0  0  0
 36 38  1  0  0  0  0
 36 39  1  0  0  0  0
M  END
> <NMREDATA_VERSION>
1.1

> <NMREDATA_LEVEL>
0

> <NMREDATA_SOLVENT>
CD2Cl2

> <NMREDATA_FORMULA>
C34H56O4P2

> <NMREDATA_SMILES>
COc1cc(cc(c1OP(C(C)C)C(C)C)c1cc(cc(c1OP(C(C)C)C(C)C)OC)C(C)(C)C)C(C)(C)C

> <NMREDATA_ASSIGNMENT>
P6, 162.20, 6
P27, 162.20, 27

> <NMREDATA_1D_31P>
Larmor=162
162.20, L=P6
162.20, L=P27

$$$$
