
 OpenBabel06112616462D

 45 51  0  0  0  0  0  0  0  0999 V2000
    0.0000    0.9623    0.0000 C   0  0  0  0  0  0  0  0  0  0  0  0
   -0.8333    1.4434    0.0000 C   0  0  0  0  0  0  0  0  0  0  0  0
   -1.7956    1.4434    0.0000 C   0  0  0  0  0  0  0  0  0  0  0  0
   -1.3145    0.6101    0.0000 C   0  0  0  0  0  0  0  0  0  0  0  0
   -0.8333    2.4057    0.0000 C   0  0  0  0  0  0  0  0  0  0  0  0
    0.8333    1.4434    0.0000 C   0  0  0  0  0  0  0  0  0  0  0  0
    1.6667    0.9623    0.0000 C   0  0  0  0  0  0  0  0  0  0  0  0
    1.6667    0.0000    0.0000 C   0  0  0  0  0  0  0  0  0  0  0  0
    2.5000   -0.4811    0.0000 C   0  0  0  0  0  0  0  0  0  0  0  0
    3.3334    0.0000    0.0000 N   0  0  0  0  0  0  0  0  0  0  0  0
    4.1667   -0.4811    0.0000 C   0  0  0  0  0  0  0  0  0  0  0  0
    4.1667   -2.4057    0.0000 C   0  0  0  0  0  0  0  0  0  0  0  0
    5.0001   -2.8868    0.0000 C   0  0  0  0  0  0  0  0  0  0  0  0
    6.6668   -1.9245    0.0000 P   0  0  0  0  0  0  0  0  0  0  0  0
    6.6668   -0.9623    0.0000 C   0  0  0  0  0  0  0  0  0  0  0  0
    7.5001   -0.4811    0.0000 C   0  0  0  0  0  0  0  0  0  0  0  0
    7.5001    0.4811    0.0000 C   0  0  0  0  0  0  0  0  0  0  0  0
    6.6668    0.9623    0.0000 C   0  0  0  0  0  0  0  0  0  0  0  0
    5.8334    0.4811    0.0000 C   0  0  0  0  0  0  0  0  0  0  0  0
    5.8334   -0.4811    0.0000 C   0  0  0  0  0  0  0  0  0  0  0  0
    7.5001   -2.4057    0.0000 C   0  0  0  0  0  0  0  0  0  0  0  0
    7.5001   -3.3679    0.0000 C   0  0  0  0  0  0  0  0  0  0  0  0
    8.3335   -3.8491    0.0000 C   0  0  0  0  0  0  0  0  0  0  0  0
    9.1668   -3.3679    0.0000 C   0  0  0  0  0  0  0  0  0  0  0  0
    9.1668   -2.4057    0.0000 C   0  0  0  0  0  0  0  0  0  0  0  0
    8.3335   -1.9245    0.0000 C   0  0  0  0  0  0  0  0  0  0  0  0
    5.0001   -3.8491    0.0000 C   0  0  0  0  0  0  0  0  0  0  0  0
    4.1667   -4.3302    0.0000 C   0  0  0  0  0  0  0  0  0  0  0  0
    3.3334   -3.8491    0.0000 C   0  0  0  0  0  0  0  0  0  0  0  0
    2.5000   -4.3302    0.0000 C   0  0  0  0  0  0  0  0  0  0  0  0
    1.6667   -3.8491    0.0000 C   0  0  0  0  0  0  0  0  0  0  0  0
    1.6667   -2.8868    0.0000 C   0  0  0  0  0  0  0  0  0  0  0  0
    2.5000   -2.4057    0.0000 C   0  0  0  0  0  0  0  0  0  0  0  0
    3.3334   -2.8868    0.0000 C   0  0  0  0  0  0  0  0  0  0  0  0
    5.0001    0.0000    0.0000 N   0  0  0  0  0  0  0  0  0  0  0  0
    5.0001    0.9623    0.0000 C   0  0  0  0  0  0  0  0  0  0  0  0
    5.8334    1.4434    0.0000 C   0  0  0  0  0  0  0  0  0  0  0  0
    5.8334    2.4057    0.0000 C   0  0  0  0  0  0  0  0  0  0  0  0
    5.0001    2.8868    0.0000 C   0  0  0  0  0  0  0  0  0  0  0  0
    4.1667    2.4057    0.0000 C   0  0  0  0  0  0  0  0  0  0  0  0
    4.1667    1.4434    0.0000 C   0  0  0  0  0  0  0  0  0  0  0  0
    3.3334    0.9623    0.0000 C   0  0  0  0  0  0  0  0  0  0  0  0
    2.5000    1.4434    0.0000 O   0  0  0  0  0  0  0  0  0  0  0  0
    0.8333   -0.4811    0.0000 C   0  0  0  0  0  0  0  0  0  0  0  0
    0.0000    0.0000    0.0000 C   0  0  0  0  0  0  0  0  0  0  0  0
  1 45  2  0  0  0  0
  1  2  1  0  0  0  0
  1  6  1  0  0  0  0
  2  3  1  0  0  0  0
  2  4  1  0  0  0  0
  2  5  1  0  0  0  0
  6  7  2  0  0  0  0
  7  8  1  0  0  0  0
  8  9  1  0  0  0  0
  8 44  2  0  0  0  0
  9 10  1  0  0  0  0
 10 42  1  0  0  0  0
 10 11  1  0  0  0  0
 11 12  1  0  0  0  0
 11 35  2  0  0  0  0
 12 34  2  0  0  0  0
 12 13  1  0  0  0  0
 13 14  1  0  0  0  0
 13 27  2  0  0  0  0
 14 15  1  0  0  0  0
 14 21  1  0  0  0  0
 15 20  2  0  0  0  0
 15 16  1  0  0  0  0
 16 17  2  0  0  0  0
 17 18  1  0  0  0  0
 18 19  2  0  0  0  0
 19 20  1  0  0  0  0
 21 26  2  0  0  0  0
 21 22  1  0  0  0  0
 22 23  2  0  0  0  0
 23 24  1  0  0  0  0
 24 25  2  0  0  0  0
 25 26  1  0  0  0  0
 27 28  1  0  0  0  0
 28 29  2  0  0  0  0
 29 34  1  0  0  0  0
 29 30  1  0  0  0  0
 30 31  2  0  0  0  0
 31 32  1  0  0  0  0
 32 33  2  0  0  0  0
 33 34  1  0  0  0  0
 35 36  1  0  0  0  0
 36 41  2  0  0  0  0
 36 37  1  0  0  0  0
 37 38  2  0  0  0  0
 38 39  1  0  0  0  0
 39 40  2  0  0  0  0
 40 41  1  0  0  0  0
 41 42  1  0  0  0  0
 42 43  2  0  0  0  0
 44 45  1  0  0  0  0
M  END
> <NMREDATA_VERSION>
1.1

> <NMREDATA_LEVEL>
0

> <NMREDATA_SOLVENT>
CDCl3

> <NMREDATA_FORMULA>
C41H35N2OP

> <NMREDATA_SMILES>
O=c1c2ccccc2nc(n1Cc1ccc(cc1)C(C)(C)C)c1c(ccc2c1cccc2)P(c1ccccc1)c1ccccc1

> <NMREDATA_ASSIGNMENT>
P14, -12.20, 14

> <NMREDATA_1D_31P>
Larmor=162
-12.20, L=P14

$$$$
