
 OpenBabel06112616432D

 22 25  0  0  0  0  0  0  0  0999 V2000
    0.7384    0.8912    0.0000 O   0  0  0  0  0  0  0  0  0  0  0  0
    0.9972   -0.0747    0.0000 P   0  0  1  0  0  0  0  0  0  0  0  0
    1.9525   -0.3704    0.0000 C   0  0  0  0  0  0  0  0  0  0  0  0
    2.6862    0.3090    0.0000 C   0  0  0  0  0  0  0  0  0  0  0  0
    3.6415    0.0133    0.0000 C   0  0  0  0  0  0  0  0  0  0  0  0
    3.8631   -0.9618    0.0000 C   0  0  0  0  0  0  0  0  0  0  0  0
    3.1293   -1.6413    0.0000 C   0  0  0  0  0  0  0  0  0  0  0  0
    2.1740   -1.3456    0.0000 C   0  0  0  0  0  0  0  0  0  0  0  0
    1.5605   -0.9010    0.0000 C   0  0  0  0  0  0  0  0  0  0  0  0
    1.2658   -1.8565    0.0000 O   0  0  0  0  0  0  0  0  0  0  0  0
    0.3349   -2.2219    0.0000 C   0  0  0  0  0  0  0  0  0  0  0  0
    0.3349   -3.2219    0.0000 C   0  0  0  0  0  0  0  0  0  0  0  0
   -0.5311   -3.7219    0.0000 C   0  0  0  0  0  0  0  0  0  0  0  0
   -1.3972   -3.2219    0.0000 C   0  0  0  0  0  0  0  0  0  0  0  0
   -1.3972   -2.2219    0.0000 C   0  0  0  0  0  0  0  0  0  0  0  0
   -0.5311   -1.7219    0.0000 C   0  0  0  0  0  0  0  0  0  0  0  0
   -0.6802   -0.7331    0.0000 C   0  0  0  0  0  0  0  0  0  0  0  0
   -1.6551   -0.5105    0.0000 C   0  0  0  0  0  0  0  0  0  0  0  0
   -1.9499    0.4450    0.0000 C   0  0  0  0  0  0  0  0  0  0  0  0
   -1.2697    1.1781    0.0000 C   0  0  0  0  0  0  0  0  0  0  0  0
   -0.2948    0.9556    0.0000 C   0  0  0  0  0  0  0  0  0  0  0  0
    0.0000    0.0000    0.0000 C   0  0  0  0  0  0  0  0  0  0  0  0
  2  1  2  1  0  0  0
  2 22  1  0  0  0  0
  2  3  1  0  0  0  0
  2  9  1  0  0  0  0
  3  8  2  0  0  0  0
  3  4  1  0  0  0  0
  4  5  2  0  0  0  0
  5  6  1  0  0  0  0
  6  7  2  0  0  0  0
  7  8  1  0  0  0  0
  9 10  1  0  0  0  0
 10 11  1  0  0  0  0
 11 16  2  0  0  0  0
 11 12  1  0  0  0  0
 12 13  2  0  0  0  0
 13 14  1  0  0  0  0
 14 15  2  0  0  0  0
 15 16  1  0  0  0  0
 16 17  1  0  0  0  0
 17 22  2  0  0  0  0
 17 18  1  0  0  0  0
 18 19  2  0  0  0  0
 19 20  1  0  0  0  0
 20 21  2  0  0  0  0
 21 22  1  0  0  0  0
M  END
> <NMREDATA_VERSION>
1.1

> <NMREDATA_LEVEL>
0

> <NMREDATA_SOLVENT>
CDCl3

> <NMREDATA_FORMULA>
C19H15O2P

> <NMREDATA_SMILES>
O=[P@]1(COc2c(-c3c1cccc3)cccc2)c1ccccc1

> <NMREDATA_ASSIGNMENT>
P2, 31.01, 2

> <NMREDATA_1D_31P>
Larmor=202
31.01, L=P2

$$$$
