
 OpenBabel06112616442D

 56 62  0  0  1  0  0  0  0  0999 V2000
    1.8660    1.5000    0.0000 O   0  0  0  0  0  0  0  0  0  0  0  0
    2.3660    0.6340    0.0000 C   0  0  0  0  0  0  0  0  0  0  0  0
    3.3660    0.6340    0.0000 C   0  0  1  0  0  0  0  0  0  0  0  0
    3.9538   -0.1750    0.0000 O   0  0  0  0  0  0  0  0  0  0  0  0
    4.9049    0.1340    0.0000 C   0  0  1  0  0  0  0  0  0  0  0  0
    5.7139   -0.4538    0.0000 N   0  0  0  0  0  0  0  0  0  0  0  0
    5.6094   -1.4483    0.0000 C   0  0  0  0  0  0  0  0  0  0  0  0
    6.4184   -2.0361    0.0000 C   0  0  0  0  0  0  0  0  0  0  0  0
    7.3319   -1.6294    0.0000 C   0  0  0  0  0  0  0  0  0  0  0  0
    8.1409   -2.2172    0.0000 N   0  0  0  0  0  0  0  0  0  0  0  0
    9.0545   -1.8104    0.0000 C   0  0  0  0  0  0  0  0  0  0  0  0
    9.1590   -0.8159    0.0000 C   0  0  0  0  0  0  0  0  0  0  0  0
    9.8635   -2.3982    0.0000 O   0  0  0  0  0  0  0  0  0  0  0  0
    7.4364   -0.6349    0.0000 N   0  0  0  0  0  0  0  0  0  0  0  0
    6.6274   -0.0471    0.0000 C   0  0  0  0  0  0  0  0  0  0  0  0
    6.7320    0.9474    0.0000 O   0  0  0  0  0  0  0  0  0  0  0  0
    4.9049    1.1340    0.0000 C   0  0  0  0  0  0  0  0  0  0  0  0
    3.9538    1.4430    0.0000 C   0  0  2  0  0  0  0  0  0  0  0  0
    3.6448    2.3940    0.0000 O   0  0  0  0  0  0  0  0  0  0  0  0
    4.3139    3.1372    0.0000 P   0  0  1  0  0  0  0  0  0  0  0  0
    5.1753    2.6293    0.0000 S   0  0  0  0  0  0  0  0  0  0  0  0
    5.0911    3.7665    0.0000 O   0  0  0  0  0  0  0  0  0  0  0  0
    4.7327    4.7001    0.0000 C   0  0  2  0  0  0  0  0  0  0  0  0
    5.1867    5.5911    0.0000 C   0  0  0  0  0  0  0  0  0  0  0  0
    4.6421    6.4298    0.0000 C   0  0  2  0  0  0  0  0  0  0  0  0
    5.0960    7.3208    0.0000 C   0  0  0  0  0  0  0  0  0  0  0  0
    4.5514    8.1594    0.0000 C   0  0  0  0  0  0  0  0  0  0  0  0
    6.0947    7.3731    0.0000 C   0  0  0  0  0  0  0  0  0  0  0  0
    3.6434    6.3774    0.0000 C   0  0  0  0  0  0  0  0  0  0  0  0
    3.1894    5.4864    0.0000 C   0  0  0  0  0  0  0  0  0  0  0  0
    3.7341    4.6478    0.0000 C   0  0  2  0  0  0  0  0  0  0  0  0
    2.8005    5.0061    0.0000 C   0  0  0  0  0  0  0  0  0  0  0  0
    3.4753    3.6818    0.0000 S   0  0  0  0  0  0  0  0  0  0  0  0
    0.8660    1.5000    0.0000 C   0  0  0  0  0  0  0  0  0  0  0  0
    0.8660    2.5000    0.0000 C   0  0  0  0  0  0  0  0  0  0  0  0
    0.0000    3.0000    0.0000 C   0  0  0  0  0  0  0  0  0  0  0  0
    0.0000    4.0000    0.0000 C   0  0  0  0  0  0  0  0  0  0  0  0
    0.8660    4.5000    0.0000 C   0  0  0  0  0  0  0  0  0  0  0  0
    1.7321    4.0000    0.0000 C   0  0  0  0  0  0  0  0  0  0  0  0
    1.7321    3.0000    0.0000 C   0  0  0  0  0  0  0  0  0  0  0  0
   -0.1340    1.5000    0.0000 C   0  0  0  0  0  0  0  0  0  0  0  0
   -0.6340    0.6340    0.0000 C   0  0  0  0  0  0  0  0  0  0  0  0
   -1.6340    0.6340    0.0000 C   0  0  0  0  0  0  0  0  0  0  0  0
   -2.1340    1.5000    0.0000 C   0  0  0  0  0  0  0  0  0  0  0  0
   -3.1340    1.5000    0.0000 O   0  0  0  0  0  0  0  0  0  0  0  0
   -3.6340    2.3660    0.0000 C   0  0  0  0  0  0  0  0  0  0  0  0
   -1.6340    2.3660    0.0000 C   0  0  0  0  0  0  0  0  0  0  0  0
   -0.6340    2.3660    0.0000 C   0  0  0  0  0  0  0  0  0  0  0  0
    0.8660    0.5000    0.0000 C   0  0  0  0  0  0  0  0  0  0  0  0
    1.7321    0.0000    0.0000 C   0  0  0  0  0  0  0  0  0  0  0  0
    1.7321   -1.0000    0.0000 C   0  0  0  0  0  0  0  0  0  0  0  0
    0.8660   -1.5000    0.0000 C   0  0  0  0  0  0  0  0  0  0  0  0
    0.8660   -2.5000    0.0000 O   0  0  0  0  0  0  0  0  0  0  0  0
    0.0000   -3.0000    0.0000 C   0  0  0  0  0  0  0  0  0  0  0  0
    0.0000   -1.0000    0.0000 C   0  0  0  0  0  0  0  0  0  0  0  0
    0.0000    0.0000    0.0000 C   0  0  0  0  0  0  0  0  0  0  0  0
  1  2  1  0  0  0  0
  1 34  1  0  0  0  0
  3  2  1  6  0  0  0
  3  4  1  0  0  0  0
  3 18  1  0  0  0  0
  4  5  1  0  0  0  0
  5  6  1  6  0  0  0
  5 17  1  0  0  0  0
  6 15  1  0  0  0  0
  6  7  1  0  0  0  0
  7  8  2  0  0  0  0
  8  9  1  0  0  0  0
  9 10  1  0  0  0  0
  9 14  2  0  0  0  0
 10 11  1  0  0  0  0
 11 12  1  0  0  0  0
 11 13  2  0  0  0  0
 14 15  1  0  0  0  0
 15 16  2  0  0  0  0
 17 18  1  0  0  0  0
 18 19  1  1  0  0  0
 19 20  1  0  0  0  0
 20 33  1  0  0  0  0
 20 21  2  1  0  0  0
 20 22  1  0  0  0  0
 22 23  1  0  0  0  0
 23 24  1  1  0  0  0
 23 31  1  0  0  0  0
 24 25  1  0  0  0  0
 25 26  1  1  0  0  0
 25 29  1  0  0  0  0
 26 27  2  0  0  0  0
 26 28  1  0  0  0  0
 29 30  1  0  0  0  0
 30 31  1  0  0  0  0
 31 32  1  1  0  0  0
 31 33  1  0  0  0  0
 34 35  1  0  0  0  0
 34 41  1  0  0  0  0
 34 49  1  0  0  0  0
 35 40  2  0  0  0  0
 35 36  1  0  0  0  0
 36 37  2  0  0  0  0
 37 38  1  0  0  0  0
 38 39  2  0  0  0  0
 39 40  1  0  0  0  0
 41 48  2  0  0  0  0
 41 42  1  0  0  0  0
 42 43  2  0  0  0  0
 43 44  1  0  0  0  0
 44 45  1  0  0  0  0
 44 47  2  0  0  0  0
 45 46  1  0  0  0  0
 47 48  1  0  0  0  0
 49 56  2  0  0  0  0
 49 50  1  0  0  0  0
 50 51  2  0  0  0  0
 51 52  1  0  0  0  0
 52 53  1  0  0  0  0
 52 55  2  0  0  0  0
 53 54  1  0  0  0  0
 55 56  1  0  0  0  0
M  END
> <NMREDATA_VERSION>
1.1

> <NMREDATA_LEVEL>
0

> <NMREDATA_SOLVENT>
CD3COCD3

> <NMREDATA_FORMULA>
C42H48N3O8PS2

> <NMREDATA_SMILES>
COc1ccc(cc1)C(c1ccc(cc1)OC)(c1ccccc1)OC[C@H]1O[C@H](C[C@@H]1O[P@@]1(=S)O[C@H]2[C@@](S1)(C)CC[C@H](C2)C(=C)C)n1ccc(nc1=O)NC(=O)C

> <NMREDATA_ASSIGNMENT>
P20, 100.30, 20

> <NMREDATA_1D_31P>
Larmor=162
100.30, L=P20

$$$$
