
 OpenBabel06112616442D

 55 62  0  0  1  0  0  0  0  0999 V2000
   -1.8660   -1.5000    0.0000 O   0  0  0  0  0  0  0  0  0  0  0  0
   -2.3660   -0.6340    0.0000 C   0  0  0  0  0  0  0  0  0  0  0  0
   -3.3660   -0.6340    0.0000 C   0  0  1  0  0  0  0  0  0  0  0  0
   -3.9538    0.1750    0.0000 O   0  0  0  0  0  0  0  0  0  0  0  0
   -4.9049   -0.1340    0.0000 C   0  0  1  0  0  0  0  0  0  0  0  0
   -5.7139    0.4538    0.0000 N   0  0  0  0  0  0  0  0  0  0  0  0
   -5.7139    1.4538    0.0000 C   0  0  0  0  0  0  0  0  0  0  0  0
   -6.6649    1.7628    0.0000 N   0  0  0  0  0  0  0  0  0  0  0  0
   -7.2527    0.9538    0.0000 C   0  0  0  0  0  0  0  0  0  0  0  0
   -8.2472    0.8493    0.0000 C   0  0  0  0  0  0  0  0  0  0  0  0
   -8.8350    1.6583    0.0000 N   0  0  0  0  0  0  0  0  0  0  0  0
   -8.6540   -0.0643    0.0000 N   0  0  0  0  0  0  0  0  0  0  0  0
   -8.0662   -0.8733    0.0000 C   0  0  0  0  0  0  0  0  0  0  0  0
   -7.0717   -0.7688    0.0000 N   0  0  0  0  0  0  0  0  0  0  0  0
   -6.6649    0.1448    0.0000 C   0  0  0  0  0  0  0  0  0  0  0  0
   -4.9049   -1.1340    0.0000 C   0  0  0  0  0  0  0  0  0  0  0  0
   -3.9538   -1.4430    0.0000 C   0  0  2  0  0  0  0  0  0  0  0  0
   -3.6448   -2.3940    0.0000 O   0  0  0  0  0  0  0  0  0  0  0  0
   -4.3139   -3.1372    0.0000 P   0  0  1  0  0  0  0  0  0  0  0  0
   -5.1753   -2.6293    0.0000 S   0  0  0  0  0  0  0  0  0  0  0  0
   -5.0911   -3.7665    0.0000 O   0  0  0  0  0  0  0  0  0  0  0  0
   -4.7327   -4.7001    0.0000 C   0  0  2  0  0  0  0  0  0  0  0  0
   -5.1867   -5.5911    0.0000 C   0  0  0  0  0  0  0  0  0  0  0  0
   -4.6421   -6.4298    0.0000 C   0  0  2  0  0  0  0  0  0  0  0  0
   -5.0960   -7.3208    0.0000 C   0  0  0  0  0  0  0  0  0  0  0  0
   -4.5514   -8.1594    0.0000 C   0  0  0  0  0  0  0  0  0  0  0  0
   -6.0947   -7.3731    0.0000 C   0  0  0  0  0  0  0  0  0  0  0  0
   -3.6434   -6.3774    0.0000 C   0  0  0  0  0  0  0  0  0  0  0  0
   -3.1894   -5.4864    0.0000 C   0  0  0  0  0  0  0  0  0  0  0  0
   -3.7341   -4.6478    0.0000 C   0  0  2  0  0  0  0  0  0  0  0  0
   -2.8005   -5.0061    0.0000 C   0  0  0  0  0  0  0  0  0  0  0  0
   -3.4753   -3.6818    0.0000 S   0  0  0  0  0  0  0  0  0  0  0  0
   -0.8660   -1.5000    0.0000 C   0  0  0  0  0  0  0  0  0  0  0  0
   -0.8660   -2.5000    0.0000 C   0  0  0  0  0  0  0  0  0  0  0  0
    0.0000   -3.0000    0.0000 C   0  0  0  0  0  0  0  0  0  0  0  0
    0.0000   -4.0000    0.0000 C   0  0  0  0  0  0  0  0  0  0  0  0
   -0.8660   -4.5000    0.0000 C   0  0  0  0  0  0  0  0  0  0  0  0
   -1.7321   -4.0000    0.0000 C   0  0  0  0  0  0  0  0  0  0  0  0
   -1.7321   -3.0000    0.0000 C   0  0  0  0  0  0  0  0  0  0  0  0
    0.1340   -1.5000    0.0000 C   0  0  0  0  0  0  0  0  0  0  0  0
    0.6340   -0.6340    0.0000 C   0  0  0  0  0  0  0  0  0  0  0  0
    1.6340   -0.6340    0.0000 C   0  0  0  0  0  0  0  0  0  0  0  0
    2.1340   -1.5000    0.0000 C   0  0  0  0  0  0  0  0  0  0  0  0
    3.1340   -1.5000    0.0000 O   0  0  0  0  0  0  0  0  0  0  0  0
    3.6340   -2.3660    0.0000 C   0  0  0  0  0  0  0  0  0  0  0  0
    1.6340   -2.3660    0.0000 C   0  0  0  0  0  0  0  0  0  0  0  0
    0.6340   -2.3660    0.0000 C   0  0  0  0  0  0  0  0  0  0  0  0
   -0.8660   -0.5000    0.0000 C   0  0  0  0  0  0  0  0  0  0  0  0
   -1.7321    0.0000    0.0000 C   0  0  0  0  0  0  0  0  0  0  0  0
   -1.7321    1.0000    0.0000 C   0  0  0  0  0  0  0  0  0  0  0  0
   -0.8660    1.5000    0.0000 C   0  0  0  0  0  0  0  0  0  0  0  0
   -0.8660    2.5000    0.0000 O   0  0  0  0  0  0  0  0  0  0  0  0
    0.0000    3.0000    0.0000 C   0  0  0  0  0  0  0  0  0  0  0  0
    0.0000    1.0000    0.0000 C   0  0  0  0  0  0  0  0  0  0  0  0
    0.0000    0.0000    0.0000 C   0  0  0  0  0  0  0  0  0  0  0  0
  1  2  1  0  0  0  0
  1 33  1  0  0  0  0
  3  2  1  6  0  0  0
  3  4  1  0  0  0  0
  3 17  1  0  0  0  0
  4  5  1  0  0  0  0
  5  6  1  6  0  0  0
  5 16  1  0  0  0  0
  6 15  1  0  0  0  0
  6  7  1  0  0  0  0
  7  8  2  0  0  0  0
  8  9  1  0  0  0  0
  9 15  2  0  0  0  0
  9 10  1  0  0  0  0
 10 11  1  0  0  0  0
 10 12  2  0  0  0  0
 12 13  1  0  0  0  0
 13 14  2  0  0  0  0
 14 15  1  0  0  0  0
 16 17  1  0  0  0  0
 17 18  1  1  0  0  0
 18 19  1  0  0  0  0
 19 32  1  0  0  0  0
 19 20  2  1  0  0  0
 19 21  1  0  0  0  0
 21 22  1  0  0  0  0
 22 23  1  1  0  0  0
 22 30  1  0  0  0  0
 23 24  1  0  0  0  0
 24 25  1  1  0  0  0
 24 28  1  0  0  0  0
 25 26  2  0  0  0  0
 25 27  1  0  0  0  0
 28 29  1  0  0  0  0
 29 30  1  0  0  0  0
 30 31  1  1  0  0  0
 30 32  1  0  0  0  0
 33 34  1  0  0  0  0
 33 40  1  0  0  0  0
 33 48  1  0  0  0  0
 34 39  2  0  0  0  0
 34 35  1  0  0  0  0
 35 36  2  0  0  0  0
 36 37  1  0  0  0  0
 37 38  2  0  0  0  0
 38 39  1  0  0  0  0
 40 47  2  0  0  0  0
 40 41  1  0  0  0  0
 41 42  2  0  0  0  0
 42 43  1  0  0  0  0
 43 44  1  0  0  0  0
 43 46  2  0  0  0  0
 44 45  1  0  0  0  0
 46 47  1  0  0  0  0
 48 55  2  0  0  0  0
 48 49  1  0  0  0  0
 49 50  2  0  0  0  0
 50 51  1  0  0  0  0
 51 52  1  0  0  0  0
 51 54  2  0  0  0  0
 52 53  1  0  0  0  0
 54 55  1  0  0  0  0
M  END
> <NMREDATA_VERSION>
1.1

> <NMREDATA_LEVEL>
0

> <NMREDATA_SOLVENT>
CDCl3

> <NMREDATA_FORMULA>
C41H46N5O6PS2

> <NMREDATA_SMILES>
COc1ccc(cc1)C(c1ccc(cc1)OC)(c1ccccc1)OC[C@H]1O[C@H](C[C@@H]1O[P@@]1(=S)O[C@H]2[C@@](S1)(C)CC[C@H](C2)C(=C)C)n1cnc2c1ncnc2N

> <NMREDATA_ASSIGNMENT>
P19, 100.80, 19

> <NMREDATA_1D_31P>
Larmor=162
100.80, L=P19

$$$$
