
 OpenBabel06112616442D

 23 26  0  0  0  0  0  0  0  0999 V2000
    2.0108    1.7601    0.0000 C   0  0  0  0  0  0  0  0  0  0  0  0
    2.3198    0.8090    0.0000 C   0  0  0  0  0  0  0  0  0  0  0  0
    3.2709    0.5000    0.0000 C   0  0  0  0  0  0  0  0  0  0  0  0
    4.0799    1.0878    0.0000 C   0  0  0  0  0  0  0  0  0  0  0  0
    3.9754    2.0823    0.0000 C   0  0  0  0  0  0  0  0  0  0  0  0
    4.7844    2.6701    0.0000 C   0  0  0  0  0  0  0  0  0  0  0  0
    5.6979    2.2634    0.0000 O   0  0  0  0  0  0  0  0  0  0  0  0
    5.8025    1.2688    0.0000 C   0  0  0  0  0  0  0  0  0  0  0  0
    4.9935    0.6810    0.0000 C   0  0  0  0  0  0  0  0  0  0  0  0
    3.2709   -0.5000    0.0000 C   0  0  0  0  0  0  0  0  0  0  0  0
    4.0140   -1.1691    0.0000 C   0  0  0  0  0  0  0  0  0  0  0  0
    3.8061   -2.1473    0.0000 C   0  0  0  0  0  0  0  0  0  0  0  0
    2.8551   -2.4563    0.0000 C   0  0  0  0  0  0  0  0  0  0  0  0
    2.1119   -1.7872    0.0000 C   0  0  0  0  0  0  0  0  0  0  0  0
    2.3198   -0.8090    0.0000 C   0  0  0  0  0  0  0  0  0  0  0  0
    1.7321    0.0000    0.0000 P   0  0  2  0  0  0  0  0  0  0  0  0
    0.8660    0.5000    0.0000 O   0  0  0  0  0  0  0  0  0  0  0  0
    0.8660   -0.5000    0.0000 C   0  0  0  0  0  0  0  0  0  0  0  0
    0.8660   -1.5000    0.0000 C   0  0  0  0  0  0  0  0  0  0  0  0
    0.0000   -2.0000    0.0000 C   0  0  0  0  0  0  0  0  0  0  0  0
   -0.8660   -1.5000    0.0000 C   0  0  0  0  0  0  0  0  0  0  0  0
   -0.8660   -0.5000    0.0000 C   0  0  0  0  0  0  0  0  0  0  0  0
    0.0000    0.0000    0.0000 C   0  0  0  0  0  0  0  0  0  0  0  0
  1  2  1  0  0  0  0
  2 16  1  0  0  0  0
  2  3  2  0  0  0  0
  3  4  1  0  0  0  0
  3 10  1  0  0  0  0
  4  9  1  0  0  0  0
  4  5  2  0  0  0  0
  5  6  1  0  0  0  0
  6  7  1  0  0  0  0
  7  8  1  0  0  0  0
  8  9  1  0  0  0  0
 10 15  2  0  0  0  0
 10 11  1  0  0  0  0
 11 12  2  0  0  0  0
 12 13  1  0  0  0  0
 13 14  2  0  0  0  0
 14 15  1  0  0  0  0
 15 16  1  0  0  0  0
 16 17  2  6  0  0  0
 16 18  1  0  0  0  0
 18 23  2  0  0  0  0
 18 19  1  0  0  0  0
 19 20  2  0  0  0  0
 20 21  1  0  0  0  0
 21 22  2  0  0  0  0
 22 23  1  0  0  0  0
M  END
> <NMREDATA_VERSION>
1.1

> <NMREDATA_LEVEL>
0

> <NMREDATA_SOLVENT>
CDCl3

> <NMREDATA_FORMULA>
C20H19O2P

> <NMREDATA_SMILES>
CC1=C(C2=CCOCC2)c2c([P@@]1(=O)c1ccccc1)cccc2

> <NMREDATA_ASSIGNMENT>
P16, 40.50, 16

> <NMREDATA_1D_31P>
Larmor=162
40.50, L=P16

$$$$
