
 OpenBabel06112616492D

 33 36  0  0  1  0  0  0  0  0999 V2000
   -0.8426   -4.3784    0.0000 C   0  0  0  0  0  0  0  0  0  0  0  0
    0.0000   -3.8919    0.0000 O   0  0  0  0  0  0  0  0  0  0  0  0
    0.0000   -2.9189    0.0000 C   0  0  2  0  0  0  0  0  0  0  0  0
    0.8426   -2.4324    0.0000 C   0  0  0  0  0  0  0  0  0  0  0  0
   -0.8426   -2.4324    0.0000 C   0  0  0  0  0  0  0  0  0  0  0  0
   -0.8426   -1.4595    0.0000 O   0  0  0  0  0  0  0  0  0  0  0  0
   -1.6852   -0.9730    0.0000 C   0  0  0  0  0  0  0  0  0  0  0  0
   -2.5279   -1.4595    0.0000 C   0  0  0  0  0  0  0  0  0  0  0  0
   -3.3705   -0.9730    0.0000 C   0  0  0  0  0  0  0  0  0  0  0  0
   -3.3705    0.0000    0.0000 C   0  0  0  0  0  0  0  0  0  0  0  0
   -2.5279    0.4865    0.0000 C   0  0  0  0  0  0  0  0  0  0  0  0
   -2.5279    1.4595    0.0000 C   0  0  0  0  0  0  0  0  0  0  0  0
   -1.6852    0.0000    0.0000 C   0  0  0  0  0  0  0  0  0  0  0  0
   -0.8426    0.4865    0.0000 C   0  0  0  0  0  0  0  0  0  0  0  0
   -0.8426    1.4595    0.0000 C   0  0  0  0  0  0  0  0  0  0  0  0
   -2.5279    2.4324    0.0000 P   0  0  0  0  0  0  0  0  0  0  0  0
   -2.5279    3.4054    0.0000 C   0  0  0  0  0  0  0  0  0  0  0  0
   -3.3705    3.8919    0.0000 C   0  0  0  0  0  0  0  0  0  0  0  0
   -3.3705    4.8649    0.0000 C   0  0  0  0  0  0  0  0  0  0  0  0
   -2.5279    5.3514    0.0000 C   0  0  0  0  0  0  0  0  0  0  0  0
   -1.6852    4.8649    0.0000 C   0  0  0  0  0  0  0  0  0  0  0  0
   -1.6852    3.8919    0.0000 C   0  0  0  0  0  0  0  0  0  0  0  0
   -3.3705    1.9459    0.0000 C   0  0  0  0  0  0  0  0  0  0  0  0
   -3.3705    0.9730    0.0000 C   0  0  0  0  0  0  0  0  0  0  0  0
   -4.2131    0.4865    0.0000 C   0  0  0  0  0  0  0  0  0  0  0  0
   -5.0557    0.9730    0.0000 C   0  0  0  0  0  0  0  0  0  0  0  0
   -5.0557    1.9459    0.0000 C   0  0  0  0  0  0  0  0  0  0  0  0
   -4.2131    2.4324    0.0000 C   0  0  0  0  0  0  0  0  0  0  0  0
    0.0000    1.9459    0.0000 C   0  0  0  0  0  0  0  0  0  0  0  0
    0.8426    1.4595    0.0000 C   0  0  0  0  0  0  0  0  0  0  0  0
    0.8426    0.4865    0.0000 C   0  0  0  0  0  0  0  0  0  0  0  0
    0.0000    0.0000    0.0000 C   0  0  0  0  0  0  0  0  0  0  0  0
    0.0000   -0.9730    0.0000 C   0  0  0  0  0  0  0  0  0  0  0  0
  1  2  1  0  0  0  0
  2  3  1  0  0  0  0
  3  4  1  1  0  0  0
  3  5  1  0  0  0  0
  5  6  1  0  0  0  0
  6  7  1  0  0  0  0
  7 13  1  0  0  0  0
  7  8  2  0  0  0  0
  8  9  1  0  0  0  0
  9 10  2  0  0  0  0
 10 11  1  0  0  0  0
 11 12  1  0  0  0  0
 11 13  2  0  0  0  0
 13 14  1  0  0  0  0
 14 32  1  0  0  0  0
 14 15  2  0  0  0  0
 15 16  1  0  0  0  0
 15 29  1  0  0  0  0
 16 17  1  0  0  0  0
 16 23  1  0  0  0  0
 17 22  1  0  0  0  0
 17 18  2  0  0  0  0
 18 19  1  0  0  0  0
 19 20  2  0  0  0  0
 20 21  1  0  0  0  0
 21 22  2  0  0  0  0
 23 28  1  0  0  0  0
 23 24  2  0  0  0  0
 24 25  1  0  0  0  0
 25 26  2  0  0  0  0
 26 27  1  0  0  0  0
 27 28  2  0  0  0  0
 29 30  2  0  0  0  0
 30 31  1  0  0  0  0
 31 32  2  0  0  0  0
 32 33  1  0  0  0  0
M  END
> <NMREDATA_VERSION>
1.1

> <NMREDATA_LEVEL>
0

> <NMREDATA_SOLVENT>
CDCl3

> <NMREDATA_FORMULA>
C30H31O2P

> <NMREDATA_SMILES>
CO[C@@H](COc1cccc(c1c1c(C)cccc1P(c1ccccc1)c1ccccc1)C)C

> <NMREDATA_ASSIGNMENT>
P16, -13.04, 16

> <NMREDATA_1D_31P>
Larmor=162
-13.04, L=P16

$$$$
