
 OpenBabel06112616432D

 46 48  0  0  0  0  0  0  0  0999 V2000
    0.9600   -2.6228    0.0000 C    0  0  0  0  0  0  0  0  0  0  0  0
    1.4400   -1.7914    0.0000 C    0  0  0  0  0  0  0  0  0  0  0  0
    0.9600   -0.9600    0.0000 O    0  0  0  0  0  0  0  0  0  0  0  0
    0.0000   -0.9600    0.0000 P    0  0  0  0  0  0  0  0  0  0  0  0
    0.0000   -1.9200    0.0000 O    0  0  0  0  0  0  0  0  0  0  0  0
   -0.9600   -0.9600    0.0000 O    0  0  0  0  0  0  0  0  0  0  0  0
   -1.4400   -1.7914    0.0000 C    0  0  0  0  0  0  0  0  0  0  0  0
   -2.4000   -1.7914    0.0000 C    0  0  0  0  0  0  0  0  0  0  0  0
    0.0000    0.0000    0.0000 C    0  0  0  0  0  0  0  0  0  0  0  0
   -0.8314    0.4800    0.0000 N    0  0  0  0  0  0  0  0  0  0  0  0
   -0.8314    1.4400    0.0000 C    0  0  0  0  0  0  0  0  0  0  0  0
   -1.6628    1.9200    0.0000 C    0  0  0  0  0  0  0  0  0  0  0  0
   -1.6628    2.8800    0.0000 C    0  0  0  0  0  0  0  0  0  0  0  0
   -2.4942    3.3600    0.0000 C    0  0  0  0  0  0  0  0  0  0  0  0
   -3.3255    2.8800    0.0000 C    0  0  0  0  0  0  0  0  0  0  0  0
   -3.3255    1.9200    0.0000 C    0  0  0  0  0  0  0  0  0  0  0  0
   -2.4942    1.4400    0.0000 C    0  0  0  0  0  0  0  0  0  0  0  0
   -2.4942    0.4800    0.0000 Cl   0  0  0  0  0  0  0  0  0  0  0  0
    0.0000    1.9200    0.0000 C    0  0  0  0  0  0  0  0  0  0  0  0
    0.8314    1.4400    0.0000 C    0  0  0  0  0  0  0  0  0  0  0  0
    0.8314    0.4800    0.0000 C    0  0  0  0  0  0  0  0  0  0  0  0
    1.6628    0.0000    0.0000 C    0  0  0  0  0  0  0  0  0  0  0  0
    1.6628    1.9200    0.0000 C    0  0  0  0  0  0  0  0  0  0  0  0
    1.6628    2.8800    0.0000 C    0  0  0  0  0  0  0  0  0  0  0  0
    3.5828    2.8800    0.0000 C    0  0  0  0  0  0  0  0  0  0  0  0
    4.0628    3.7114    0.0000 O    0  0  0  0  0  0  0  0  0  0  0  0
    4.0628    2.0486    0.0000 O    0  0  0  0  0  0  0  0  0  0  0  0
    5.0228    2.0486    0.0000 C    0  0  0  0  0  0  0  0  0  0  0  0
    5.5028    2.8800    0.0000 C    0  0  0  0  0  0  0  0  0  0  0  0
    2.1428    3.7114    0.0000 C    0  0  0  0  0  0  0  0  0  0  0  0
    3.1028    3.7114    0.0000 O    0  0  0  0  0  0  0  0  0  0  0  0
    1.6628    4.5428    0.0000 O    0  0  0  0  0  0  0  0  0  0  0  0
    2.1428    5.3742    0.0000 C    0  0  0  0  0  0  0  0  0  0  0  0
    3.1028    5.3742    0.0000 C    0  0  0  0  0  0  0  0  0  0  0  0
    0.8314    3.3600    0.0000 C    0  0  0  0  0  0  0  0  0  0  0  0
    1.3114    4.1914    0.0000 C    0  0  0  0  0  0  0  0  0  0  0  0
    2.2714    4.1914    0.0000 O    0  0  0  0  0  0  0  0  0  0  0  0
    0.8314    5.0228    0.0000 O    0  0  0  0  0  0  0  0  0  0  0  0
    1.3114    5.8542    0.0000 C    0  0  0  0  0  0  0  0  0  0  0  0
    2.2714    5.8542    0.0000 C    0  0  0  0  0  0  0  0  0  0  0  0
   -0.1286    5.0228    0.0000 C    0  0  0  0  0  0  0  0  0  0  0  0
    0.3514    5.8542    0.0000 O    0  0  0  0  0  0  0  0  0  0  0  0
   -1.0886    5.0228    0.0000 O    0  0  0  0  0  0  0  0  0  0  0  0
   -1.5686    4.1914    0.0000 C    0  0  0  0  0  0  0  0  0  0  0  0
   -1.0886    3.3600    0.0000 C    0  0  0  0  0  0  0  0  0  0  0  0
    0.0000    2.8800    0.0000 C    0  0  0  0  0  0  0  0  0  0  0  0
  1  2  1  0  0  0  0
  2  3  1  0  0  0  0
  3  4  1  0  0  0  0
  4  5  2  0  0  0  0
  4  6  1  0  0  0  0
  4  9  1  0  0  0  0
  6  7  1  0  0  0  0
  7  8  1  0  0  0  0
  9 21  2  0  0  0  0
  9 10  1  0  0  0  0
 10 11  2  0  0  0  0
 11 12  1  0  0  0  0
 11 19  1  0  0  0  0
 12 17  2  0  0  0  0
 12 13  1  0  0  0  0
 13 14  2  0  0  0  0
 14 15  1  0  0  0  0
 15 16  2  0  0  0  0
 16 17  1  0  0  0  0
 17 18  1  0  0  0  0
 19 46  1  0  0  0  0
 19 20  2  0  0  0  0
 20 21  1  0  0  0  0
 20 23  1  0  0  0  0
 21 22  1  0  0  0  0
 23 24  1  0  0  0  0
 24 25  1  0  0  0  0
 24 30  1  0  0  0  0
 24 35  1  0  0  0  0
 25 26  2  0  0  0  0
 25 27  1  0  0  0  0
 27 28  1  0  0  0  0
 28 29  1  0  0  0  0
 30 31  2  0  0  0  0
 30 32  1  0  0  0  0
 32 33  1  0  0  0  0
 33 34  1  0  0  0  0
 35 36  1  0  0  0  0
 35 41  1  0  0  0  0
 35 46  1  0  0  0  0
 36 37  2  0  0  0  0
 36 38  1  0  0  0  0
 38 39  1  0  0  0  0
 39 40  1  0  0  0  0
 41 42  2  0  0  0  0
 41 43  1  0  0  0  0
 43 44  1  0  0  0  0
 44 45  1  0  0  0  0
M  END
> <NMREDATA_VERSION>
1.1

> <NMREDATA_LEVEL>
0

> <NMREDATA_SOLVENT>
CDCl3

> <NMREDATA_FORMULA>
C32H41ClNO11P

> <NMREDATA_SMILES>
CCOC(=O)C1(Cc2c(CC1(C(=O)OCC)C(=O)OCC)c(nc(c2C)P(=O)(OCC)OCC)c1ccccc1Cl)C(=O)OCC

> <NMREDATA_ASSIGNMENT>
P4, 13.10, 4

> <NMREDATA_1D_31P>
Larmor=162
13.10, L=P4

$$$$
