
 OpenBabel06112616482D

 35 37  0  0  1  0  0  0  0  0999 V2000
    3.6644    4.2317    0.0000 C    0  0  0  0  0  0  0  0  0  0  0  0
    2.8767    3.6593    0.0000 C    0  0  0  0  0  0  0  0  0  0  0  0
    2.4807    2.7698    0.0000 C    0  0  0  0  0  0  0  0  0  0  0  0
    3.4490    2.8716    0.0000 C    0  0  0  0  0  0  0  0  0  0  0  0
    1.9872    4.0554    0.0000 O    0  0  0  0  0  0  0  0  0  0  0  0
    1.1995    3.4831    0.0000 C    0  0  0  0  0  0  0  0  0  0  0  0
    0.3100    3.8791    0.0000 O    0  0  0  0  0  0  0  0  0  0  0  0
    1.3012    2.5147    0.0000 C    0  0  0  0  0  0  0  0  0  0  0  0
    2.1445    2.0279    0.0000 C    0  0  0  0  0  0  0  0  0  0  0  0
    1.9420    1.0755    0.0000 C    0  0  2  0  0  0  0  0  0  0  0  0
    2.5936    0.3519    0.0000 C    0  0  0  0  0  0  0  0  0  0  0  0
    3.5460    0.5543    0.0000 C    0  0  0  0  0  0  0  0  0  0  0  0
    4.1975   -0.1693    0.0000 C    0  0  0  0  0  0  0  0  0  0  0  0
    3.8966   -1.0953    0.0000 C    0  0  0  0  0  0  0  0  0  0  0  0
    4.5481   -1.8189    0.0000 C    0  0  0  0  0  0  0  0  0  0  0  0
    5.5005   -1.6165    0.0000 C    0  0  0  0  0  0  0  0  0  0  0  0
    5.8014   -0.6904    0.0000 C    0  0  0  0  0  0  0  0  0  0  0  0
    5.1499    0.0332    0.0000 C    0  0  0  0  0  0  0  0  0  0  0  0
    0.9737    0.9737    0.0000 C    0  0  2  0  0  0  0  0  0  0  0  0
   -0.7128    0.0000    0.0000 C    0  0  0  0  0  0  0  0  0  0  0  0
   -0.7128   -0.9737    0.0000 C    0  0  0  0  0  0  0  0  0  0  0  0
   -1.5560   -1.4605    0.0000 C    0  0  0  0  0  0  0  0  0  0  0  0
   -2.3993   -0.9737    0.0000 C    0  0  0  0  0  0  0  0  0  0  0  0
   -3.2425   -1.4605    0.0000 Cl   0  0  0  0  0  0  0  0  0  0  0  0
   -2.3993    0.0000    0.0000 C    0  0  0  0  0  0  0  0  0  0  0  0
   -1.5560    0.4868    0.0000 C    0  0  0  0  0  0  0  0  0  0  0  0
    0.9737    0.0000    0.0000 P    0  0  0  0  0  0  0  0  0  0  0  0
    1.9474    0.0000    0.0000 O    0  0  0  0  0  0  0  0  0  0  0  0
    2.4342   -0.8432    0.0000 C    0  0  0  0  0  0  0  0  0  0  0  0
    1.9474   -1.6865    0.0000 C    0  0  0  0  0  0  0  0  0  0  0  0
    0.9737   -0.9737    0.0000 O    0  0  0  0  0  0  0  0  0  0  0  0
    0.1304   -1.4605    0.0000 C    0  0  0  0  0  0  0  0  0  0  0  0
    0.1304   -2.4342    0.0000 C    0  0  0  0  0  0  0  0  0  0  0  0
    0.0000    0.0000    0.0000 O    0  0  0  0  0  0  0  0  0  0  0  0
    0.5777    1.8632    0.0000 C    0  0  0  0  0  0  0  0  0  0  0  0
  1  2  1  0  0  0  0
  2  3  1  0  0  0  0
  2  4  1  0  0  0  0
  2  5  1  0  0  0  0
  5  6  1  0  0  0  0
  6  7  2  0  0  0  0
  6  8  1  0  0  0  0
  8 35  1  0  0  0  0
  8  9  2  0  0  0  0
  9 10  1  0  0  0  0
 10 11  1  6  0  0  0
 10 19  1  0  0  0  0
 11 12  1  0  0  0  0
 12 13  1  0  0  0  0
 13 18  2  0  0  0  0
 13 14  1  0  0  0  0
 14 15  2  0  0  0  0
 15 16  1  0  0  0  0
 16 17  2  0  0  0  0
 17 18  1  0  0  0  0
 19 20  1  0  0  0  0
 19 27  1  6  0  0  0
 19 35  1  0  0  0  0
 20 26  2  0  0  0  0
 20 21  1  0  0  0  0
 21 22  2  0  0  0  0
 22 23  1  0  0  0  0
 23 24  1  0  0  0  0
 23 25  2  0  0  0  0
 25 26  1  0  0  0  0
 27 28  1  0  0  0  0
 27 31  1  0  0  0  0
 27 34  2  0  0  0  0
 28 29  1  0  0  0  0
 29 30  1  0  0  0  0
 31 32  1  0  0  0  0
 32 33  1  0  0  0  0
M  END
> <NMREDATA_VERSION>
1.1

> <NMREDATA_LEVEL>
0

> <NMREDATA_SOLVENT>
CDCl3

> <NMREDATA_FORMULA>
C28H36ClO5P

> <NMREDATA_SMILES>
CCOP(=O)([C@@]1(CC(=C[C@@H]1CCc1ccccc1)C(=O)OC(C)(C)C)c1ccc(cc1)Cl)OCC

> <NMREDATA_ASSIGNMENT>
P27, 30.60, 27

> <NMREDATA_1D_31P>
Larmor=162
30.60, L=P27

$$$$
