
 OpenBabel06112616442D

 27 31  0  0  0  0  0  0  0  0999 V2000
   -2.3660   -0.6340    0.0000 C    0  0  0  0  0  0  0  0  0  0  0  0
   -2.3660    0.3660    0.0000 N    0  0  0  0  0  0  0  0  0  0  0  0
   -3.2321    0.8660    0.0000 C    0  0  0  0  0  0  0  0  0  0  0  0
   -4.0981    0.3660    0.0000 C    0  0  0  0  0  0  0  0  0  0  0  0
   -4.9641    0.8660    0.0000 C    0  0  0  0  0  0  0  0  0  0  0  0
   -4.9641    1.8660    0.0000 C    0  0  0  0  0  0  0  0  0  0  0  0
   -5.8301    2.3660    0.0000 C    0  0  0  0  0  0  0  0  0  0  0  0
   -5.8301    3.3660    0.0000 C    0  0  0  0  0  0  0  0  0  0  0  0
   -4.9641    3.8660    0.0000 C    0  0  0  0  0  0  0  0  0  0  0  0
   -4.0981    3.3660    0.0000 C    0  0  0  0  0  0  0  0  0  0  0  0
   -4.0981    2.3660    0.0000 C    0  0  0  0  0  0  0  0  0  0  0  0
   -3.2321    1.8660    0.0000 C    0  0  0  0  0  0  0  0  0  0  0  0
   -2.3660    2.3660    0.0000 C    0  0  0  0  0  0  0  0  0  0  0  0
   -2.3660    3.3660    0.0000 C    0  0  0  0  0  0  0  0  0  0  0  0
   -1.5000    3.8660    0.0000 C    0  0  0  0  0  0  0  0  0  0  0  0
   -0.6340    3.3660    0.0000 C    0  0  0  0  0  0  0  0  0  0  0  0
    0.2321    3.8660    0.0000 Cl   0  0  0  0  0  0  0  0  0  0  0  0
   -0.6340    2.3660    0.0000 C    0  0  0  0  0  0  0  0  0  0  0  0
   -1.5000    1.8660    0.0000 C    0  0  0  0  0  0  0  0  0  0  0  0
   -1.5000    0.8660    0.0000 P    0  0  1  0  0  0  0  0  0  0  0  0
   -1.0000    0.0000    0.0000 O    0  0  0  0  0  0  0  0  0  0  0  0
   -0.5000    0.8660    0.0000 C    0  0  0  0  0  0  0  0  0  0  0  0
    0.0000    1.7321    0.0000 C    0  0  0  0  0  0  0  0  0  0  0  0
    1.0000    1.7321    0.0000 C    0  0  0  0  0  0  0  0  0  0  0  0
    1.5000    0.8660    0.0000 C    0  0  0  0  0  0  0  0  0  0  0  0
    1.0000    0.0000    0.0000 C    0  0  0  0  0  0  0  0  0  0  0  0
    0.0000    0.0000    0.0000 C    0  0  0  0  0  0  0  0  0  0  0  0
  1  2  1  0  0  0  0
  2 20  1  0  0  0  0
  2  3  1  0  0  0  0
  3 12  2  0  0  0  0
  3  4  1  0  0  0  0
  4  5  2  0  0  0  0
  5  6  1  0  0  0  0
  6 11  2  0  0  0  0
  6  7  1  0  0  0  0
  7  8  2  0  0  0  0
  8  9  1  0  0  0  0
  9 10  2  0  0  0  0
 10 11  1  0  0  0  0
 11 12  1  0  0  0  0
 12 13  1  0  0  0  0
 13 19  2  0  0  0  0
 13 14  1  0  0  0  0
 14 15  2  0  0  0  0
 15 16  1  0  0  0  0
 16 17  1  0  0  0  0
 16 18  2  0  0  0  0
 18 19  1  0  0  0  0
 19 20  1  0  0  0  0
 20 21  2  1  0  0  0
 20 22  1  0  0  0  0
 22 27  2  0  0  0  0
 22 23  1  0  0  0  0
 23 24  2  0  0  0  0
 24 25  1  0  0  0  0
 25 26  2  0  0  0  0
 26 27  1  0  0  0  0
M  END
> <NMREDATA_VERSION>
1.1

> <NMREDATA_LEVEL>
0

> <NMREDATA_SOLVENT>
CDCl3

> <NMREDATA_FORMULA>
C23H17ClNOP

> <NMREDATA_SMILES>
Clc1ccc2-c3c4ccccc4ccc3N([P@](=O)(c2c1)c1ccccc1)C

> <NMREDATA_ASSIGNMENT>
P20, 17.86, 20

> <NMREDATA_1D_31P>
Larmor=162
17.86, L=P20

$$$$
