
 OpenBabel06112616482D

 33 37  0  0  0  0  0  0  0  0999 V2000
    1.6865   -1.9474    0.0000 C   0  0  0  0  0  0  0  0  0  0  0  0
    0.8432   -1.4605    0.0000 O   0  0  0  0  0  0  0  0  0  0  0  0
    0.0000   -1.9474    0.0000 C   0  0  0  0  0  0  0  0  0  0  0  0
    0.0000   -2.9211    0.0000 C   0  0  0  0  0  0  0  0  0  0  0  0
   -0.8432   -3.4079    0.0000 C   0  0  0  0  0  0  0  0  0  0  0  0
   -1.6865   -2.9211    0.0000 C   0  0  0  0  0  0  0  0  0  0  0  0
   -1.6865   -1.9474    0.0000 C   0  0  0  0  0  0  0  0  0  0  0  0
   -3.3729   -0.9737    0.0000 P   0  0  0  0  0  0  0  0  0  0  0  0
   -3.3729    0.0000    0.0000 C   0  0  0  0  0  0  0  0  0  0  0  0
   -4.2162    0.4868    0.0000 C   0  0  0  0  0  0  0  0  0  0  0  0
   -4.2162    1.4605    0.0000 C   0  0  0  0  0  0  0  0  0  0  0  0
   -3.3729    1.9474    0.0000 C   0  0  0  0  0  0  0  0  0  0  0  0
   -2.5297    1.4605    0.0000 C   0  0  0  0  0  0  0  0  0  0  0  0
   -2.5297    0.4868    0.0000 C   0  0  0  0  0  0  0  0  0  0  0  0
   -4.2162   -1.4605    0.0000 C   0  0  0  0  0  0  0  0  0  0  0  0
   -4.2162   -2.4342    0.0000 C   0  0  0  0  0  0  0  0  0  0  0  0
   -5.0594   -2.9211    0.0000 C   0  0  0  0  0  0  0  0  0  0  0  0
   -5.9026   -2.4342    0.0000 C   0  0  0  0  0  0  0  0  0  0  0  0
   -5.9026   -1.4605    0.0000 C   0  0  0  0  0  0  0  0  0  0  0  0
   -5.0594   -0.9737    0.0000 C   0  0  0  0  0  0  0  0  0  0  0  0
   -0.8432   -1.4605    0.0000 C   0  0  0  0  0  0  0  0  0  0  0  0
   -0.8432   -0.4868    0.0000 B   0  0  0  0  0  0  0  0  0  0  0  0
   -1.6865    0.0000    0.0000 C   0  0  0  0  0  0  0  0  0  0  0  0
   -2.5297   -0.4868    0.0000 C   0  0  0  0  0  0  0  0  0  0  0  0
   -1.6865    0.9737    0.0000 C   0  0  0  0  0  0  0  0  0  0  0  0
   -0.8432    1.4605    0.0000 N   0  0  0  0  0  0  0  0  0  0  0  0
   -0.8432    2.4342    0.0000 C   0  0  0  0  0  0  0  0  0  0  0  0
    0.0000    0.9737    0.0000 C   0  0  0  0  0  0  0  0  0  0  0  0
    0.8432    1.4605    0.0000 C   0  0  0  0  0  0  0  0  0  0  0  0
    1.6865    0.9737    0.0000 C   0  0  0  0  0  0  0  0  0  0  0  0
    1.6865    0.0000    0.0000 C   0  0  0  0  0  0  0  0  0  0  0  0
    0.8432   -0.4868    0.0000 C   0  0  0  0  0  0  0  0  0  0  0  0
    0.0000    0.0000    0.0000 C   0  0  0  0  0  0  0  0  0  0  0  0
  1  2  1  0  0  0  0
  2  3  1  0  0  0  0
  3 21  2  0  0  0  0
  3  4  1  0  0  0  0
  4  5  2  0  0  0  0
  5  6  1  0  0  0  0
  6  7  2  0  0  0  0
  7  8  1  0  0  0  0
  7 21  1  0  0  0  0
  8  9  1  0  0  0  0
  8 15  1  0  0  0  0
  9 14  1  0  0  0  0
  9 10  1  0  0  0  0
 10 11  1  0  0  0  0
 11 12  1  0  0  0  0
 12 13  1  0  0  0  0
 13 14  1  0  0  0  0
 15 20  1  0  0  0  0
 15 16  1  0  0  0  0
 16 17  1  0  0  0  0
 17 18  1  0  0  0  0
 18 19  1  0  0  0  0
 19 20  1  0  0  0  0
 21 22  1  0  0  0  0
 22 33  1  0  0  0  0
 22 23  1  0  0  0  0
 23 24  1  0  0  0  0
 23 25  2  0  0  0  0
 25 26  1  0  0  0  0
 26 27  1  0  0  0  0
 26 28  1  0  0  0  0
 28 33  2  0  0  0  0
 28 29  1  0  0  0  0
 29 30  2  0  0  0  0
 30 31  1  0  0  0  0
 31 32  2  0  0  0  0
 32 33  1  0  0  0  0
M  END
> <NMREDATA_VERSION>
1.1

> <NMREDATA_LEVEL>
0

> <NMREDATA_SOLVENT>
CDCl3

> <NMREDATA_FORMULA>
C29H39BNOP

> <NMREDATA_SMILES>
COc1cccc(c1b1c(C)cn(c2c1cccc2)C)P(C1CCCCC1)C1CCCCC1

> <NMREDATA_ASSIGNMENT>
P8, -5.10, 8

> <NMREDATA_1D_31P>
Larmor=202
-5.10, L=P8

$$$$
