
 OpenBabel06112616442D

 85 95  0  0  0  0  0  0  0  0999 V2000
   -1.7321    0.0000    0.0000 C    0  0  0  0  0  0  0  0  0  0  0  0
   -1.7321    1.0000    0.0000 C    0  0  0  0  0  0  0  0  0  0  0  0
   -2.5981    1.5000    0.0000 C    0  0  0  0  0  0  0  0  0  0  0  0
   -2.5981    2.5000    0.0000 C    0  0  0  0  0  0  0  0  0  0  0  0
   -1.7321    3.0000    0.0000 C    0  0  0  0  0  0  0  0  0  0  0  0
   -1.7321    4.0000    0.0000 C    0  0  0  0  0  0  0  0  0  0  0  0
   -0.8660    4.5000    0.0000 O    0  0  0  0  0  0  0  0  0  0  0  0
   -2.5981    4.5000    0.0000 N    0  0  0  0  0  0  0  0  0  0  0  0
   -3.4641    4.0000    0.0000 C    0  0  0  0  0  0  0  0  0  0  0  0
   -4.3301    4.5000    0.0000 C    0  0  0  0  0  0  0  0  0  0  0  0
   -4.3301    5.5000    0.0000 N    0  0  0  0  0  0  0  0  0  0  0  0
   -5.1962    6.0000    0.0000 C    0  0  0  0  0  0  0  0  0  0  0  0
   -5.1962    7.0000    0.0000 O    0  0  0  0  0  0  0  0  0  0  0  0
   -6.0622    5.5000    0.0000 C    0  0  0  0  0  0  0  0  0  0  0  0
   -6.0622    4.5000    0.0000 C    0  0  0  0  0  0  0  0  0  0  0  0
   -6.9282    4.0000    0.0000 C    0  0  0  0  0  0  0  0  0  0  0  0
   -6.9282    3.0000    0.0000 O    0  0  0  0  0  0  0  0  0  0  0  0
   -6.0622    2.5000    0.0000 C    0  0  0  0  0  0  0  0  0  0  0  0
   -7.7942    4.5000    0.0000 C    0  0  0  0  0  0  0  0  0  0  0  0
   -8.6603    4.0000    0.0000 C    0  0  0  0  0  0  0  0  0  0  0  0
   -8.6603    3.0000    0.0000 C    0  0  0  0  0  0  0  0  0  0  0  0
   -7.7942    2.5000    0.0000 C    0  0  0  0  0  0  0  0  0  0  0  0
   -7.7942    1.5000    0.0000 C    0  0  0  0  0  0  0  0  0  0  0  0
   -8.6603    1.0000    0.0000 C    0  0  0  0  0  0  0  0  0  0  0  0
   -8.6603    0.0000    0.0000 N    0  3  0  0  0  0  0  0  0  0  0  0
   -9.5263   -0.5000    0.0000 C    0  0  0  0  0  0  0  0  0  0  0  0
   -7.7942   -0.5000    0.0000 C    0  0  0  0  0  0  0  0  0  0  0  0
   -9.5263    1.5000    0.0000 C    0  0  0  0  0  0  0  0  0  0  0  0
   -9.5263    2.5000    0.0000 C    0  0  0  0  0  0  0  0  0  0  0  0
  -10.3923    3.0000    0.0000 Si   0  0  3  0  0  0  0  0  0  0  0  0
  -11.3923    3.0000    0.0000 C    0  0  0  0  0  0  0  0  0  0  0  0
  -11.8923    2.1340    0.0000 C    0  0  0  0  0  0  0  0  0  0  0  0
  -12.8923    2.1340    0.0000 C    0  0  0  0  0  0  0  0  0  0  0  0
  -13.3923    3.0000    0.0000 C    0  0  0  0  0  0  0  0  0  0  0  0
  -12.8923    3.8660    0.0000 C    0  0  0  0  0  0  0  0  0  0  0  0
  -11.8923    3.8660    0.0000 C    0  0  0  0  0  0  0  0  0  0  0  0
  -10.8923    2.1340    0.0000 C    0  0  0  0  0  0  0  0  0  0  0  0
  -10.3923    1.2679    0.0000 C    0  0  0  0  0  0  0  0  0  0  0  0
  -10.3923    4.0000    0.0000 C    0  0  0  0  0  0  0  0  0  0  0  0
  -11.2583    4.5000    0.0000 C    0  0  0  0  0  0  0  0  0  0  0  0
  -11.2583    5.5000    0.0000 C    0  0  0  0  0  0  0  0  0  0  0  0
  -12.1244    6.0000    0.0000 N    0  0  0  0  0  0  0  0  0  0  0  0
  -12.1244    7.0000    0.0000 C    0  0  0  0  0  0  0  0  0  0  0  0
  -12.9904    5.5000    0.0000 C    0  0  0  0  0  0  0  0  0  0  0  0
  -10.3923    6.0000    0.0000 C    0  0  0  0  0  0  0  0  0  0  0  0
   -9.5263    5.5000    0.0000 C    0  0  0  0  0  0  0  0  0  0  0  0
   -9.5263    4.5000    0.0000 C    0  0  0  0  0  0  0  0  0  0  0  0
   -7.7942    5.5000    0.0000 C    0  0  0  0  0  0  0  0  0  0  0  0
   -8.6603    6.0000    0.0000 O    0  0  0  0  0  0  0  0  0  0  0  0
   -8.6603    7.0000    0.0000 C    0  0  0  0  0  0  0  0  0  0  0  0
   -6.9282    6.0000    0.0000 C    0  0  0  0  0  0  0  0  0  0  0  0
   -3.4641    6.0000    0.0000 C    0  0  0  0  0  0  0  0  0  0  0  0
   -2.5981    5.5000    0.0000 C    0  0  0  0  0  0  0  0  0  0  0  0
   -0.8660    2.5000    0.0000 C    0  0  0  0  0  0  0  0  0  0  0  0
   -0.8660    1.5000    0.0000 C    0  0  0  0  0  0  0  0  0  0  0  0
    0.0000    1.0000    0.0000 C    0  0  0  0  0  0  0  0  0  0  0  0
    0.8660    1.5000    0.0000 C    0  0  0  0  0  0  0  0  0  0  0  0
    0.8660    2.5000    0.0000 C    0  0  0  0  0  0  0  0  0  0  0  0
    1.7321    3.0000    0.0000 C    0  0  0  0  0  0  0  0  0  0  0  0
    2.5981    2.5000    0.0000 C    0  0  0  0  0  0  0  0  0  0  0  0
    3.4641    3.0000    0.0000 N    0  3  0  0  0  0  0  0  0  0  0  0
    4.3301    2.5000    0.0000 C    0  0  0  0  0  0  0  0  0  0  0  0
    3.4641    4.0000    0.0000 C    0  0  0  0  0  0  0  0  0  0  0  0
    2.5981    1.5000    0.0000 C    0  0  0  0  0  0  0  0  0  0  0  0
    1.7321    1.0000    0.0000 C    0  0  0  0  0  0  0  0  0  0  0  0
    1.7321    0.0000    0.0000 P    0  0  2  0  0  0  0  0  0  0  0  0
    2.2321   -0.8660    0.0000 O    0  0  0  0  0  0  0  0  0  0  0  0
    2.7321    0.0000    0.0000 C    0  0  0  0  0  0  0  0  0  0  0  0
    3.2321    0.8660    0.0000 C    0  0  0  0  0  0  0  0  0  0  0  0
    4.2321    0.8660    0.0000 C    0  0  0  0  0  0  0  0  0  0  0  0
    4.7321    0.0000    0.0000 C    0  0  0  0  0  0  0  0  0  0  0  0
    4.2321   -0.8660    0.0000 C    0  0  0  0  0  0  0  0  0  0  0  0
    3.2321   -0.8660    0.0000 C    0  0  0  0  0  0  0  0  0  0  0  0
    0.8660   -0.5000    0.0000 C    0  0  0  0  0  0  0  0  0  0  0  0
    0.8660   -1.5000    0.0000 C    0  0  0  0  0  0  0  0  0  0  0  0
    0.0000   -2.0000    0.0000 C    0  0  0  0  0  0  0  0  0  0  0  0
    0.0000   -3.0000    0.0000 N    0  0  0  0  0  0  0  0  0  0  0  0
   -0.8660   -3.5000    0.0000 C    0  0  0  0  0  0  0  0  0  0  0  0
    0.8660   -3.5000    0.0000 C    0  0  0  0  0  0  0  0  0  0  0  0
   -0.8660   -1.5000    0.0000 C    0  0  0  0  0  0  0  0  0  0  0  0
   -0.8660   -0.5000    0.0000 C    0  0  0  0  0  0  0  0  0  0  0  0
    0.0000    0.0000    0.0000 C    0  0  0  0  0  0  0  0  0  0  0  0
   -1.2321   -0.8660    0.0000 F    0  0  0  0  0  0  0  0  0  0  0  0
   -0.7321    0.0000    0.0000 F    0  0  0  0  0  0  0  0  0  0  0  0
   -2.5981   -0.5000    0.0000 F    0  0  0  0  0  0  0  0  0  0  0  0
  1  2  1  0  0  0  0
  1 83  1  0  0  0  0
  1 84  1  0  0  0  0
  1 85  1  0  0  0  0
  2 55  2  0  0  0  0
  2  3  1  0  0  0  0
  3  4  2  0  0  0  0
  4  5  1  0  0  0  0
  5  6  1  0  0  0  0
  5 54  2  0  0  0  0
  6  7  2  0  0  0  0
  6  8  1  0  0  0  0
  8 53  1  0  0  0  0
  8  9  1  0  0  0  0
  9 10  1  0  0  0  0
 10 11  1  0  0  0  0
 11 12  1  0  0  0  0
 11 52  1  0  0  0  0
 12 13  2  0  0  0  0
 12 14  1  0  0  0  0
 14 51  2  0  0  0  0
 14 15  1  0  0  0  0
 15 16  2  0  0  0  0
 16 17  1  0  0  0  0
 16 19  1  0  0  0  0
 17 18  1  0  0  0  0
 19 20  1  0  0  0  0
 19 48  2  0  0  0  0
 20 47  1  0  0  0  0
 20 21  2  0  0  0  0
 21 29  1  0  0  0  0
 21 22  1  0  0  0  0
 22 23  2  0  0  0  0
 23 24  1  0  0  0  0
 24 25  2  0  0  0  0
 24 28  1  0  0  0  0
 25 26  1  0  0  0  0
 25 27  1  0  0  0  0
 28 29  2  0  0  0  0
 29 30  1  0  0  0  0
 30 31  1  0  0  0  0
 30 37  1  0  0  0  0
 30 39  1  0  0  0  0
 31 36  2  0  0  0  0
 31 32  1  0  0  0  0
 32 33  2  0  0  0  0
 33 34  1  0  0  0  0
 34 35  2  0  0  0  0
 35 36  1  0  0  0  0
 37 38  1  0  0  0  0
 39 47  2  0  0  0  0
 39 40  1  0  0  0  0
 40 41  2  0  0  0  0
 41 42  1  0  0  0  0
 41 45  1  0  0  0  0
 42 43  1  0  0  0  0
 42 44  1  0  0  0  0
 45 46  2  0  0  0  0
 46 47  1  0  0  0  0
 48 49  1  0  0  0  0
 48 51  1  0  0  0  0
 49 50  1  0  0  0  0
 52 53  1  0  0  0  0
 54 55  1  0  0  0  0
 55 56  1  0  0  0  0
 56 82  1  0  0  0  0
 56 57  2  0  0  0  0
 57 65  1  0  0  0  0
 57 58  1  0  0  0  0
 58 59  2  0  0  0  0
 59 60  1  0  0  0  0
 60 61  2  0  0  0  0
 60 64  1  0  0  0  0
 61 62  1  0  0  0  0
 61 63  1  0  0  0  0
 64 65  2  0  0  0  0
 65 66  1  0  0  0  0
 66 67  2  1  0  0  0
 66 68  1  0  0  0  0
 66 74  1  0  0  0  0
 68 73  2  0  0  0  0
 68 69  1  0  0  0  0
 69 70  2  0  0  0  0
 70 71  1  0  0  0  0
 71 72  2  0  0  0  0
 72 73  1  0  0  0  0
 74 82  2  0  0  0  0
 74 75  1  0  0  0  0
 75 76  2  0  0  0  0
 76 77  1  0  0  0  0
 76 80  1  0  0  0  0
 77 78  1  0  0  0  0
 77 79  1  0  0  0  0
 80 81  2  0  0  0  0
 81 82  1  0  0  0  0
M  END
> <NMREDATA_VERSION>
1.1

> <NMREDATA_LEVEL>
0

> <NMREDATA_SOLVENT>
CD3OD

> <NMREDATA_FORMULA>
C69H70F3N6O5PSi

> <NMREDATA_SMILES>
COc1cc(cc(c1C1=C2C=CC(=N(C)C)C=C2[Si](c2c1ccc(c2)N(C)C)(CC)c1ccccc1)OC)C(=O)N1CCN(CC1)C(=O)c1ccc(c(c1)C1=C2C=CC(=N(C)C)C=C2[P@@](=O)(c2c1ccc(c2)N(C)C)c1ccccc1)C(F)(F)F

> <NMREDATA_ASSIGNMENT>
P66, 10.32, 66

> <NMREDATA_1D_31P>
Larmor=243
10.32, L=P66

$$$$
