
 OpenBabel06112616472D

 42 49  0  0  1  0  0  0  0  0999 V2000
    1.6588   -0.0006    0.0000 O   0  0  0  0  0  0  0  0  0  0  0  0
    0.8295    0.4787    0.0000 P   0  0  3  0  0  0  0  0  0  0  0  0
    1.6592    0.9575    0.0000 C   0  0  0  0  0  0  0  0  0  0  0  0
    1.6594    1.9156    0.0000 C   0  0  0  0  0  0  0  0  0  0  0  0
    0.8298    2.3946    0.0000 C   0  0  0  0  0  0  0  0  0  0  0  0
    0.8298    3.3525    0.0000 C   0  0  0  0  0  0  0  0  0  0  0  0
    1.6594    3.8314    0.0000 C   0  0  0  0  0  0  0  0  0  0  0  0
    2.4890    3.3525    0.0000 C   0  0  0  0  0  0  0  0  0  0  0  0
    2.4890    2.3946    0.0000 C   0  0  0  0  0  0  0  0  0  0  0  0
    3.3185    1.9156    0.0000 C   0  0  0  0  0  0  0  0  0  0  0  0
    4.1481    2.3946    0.0000 C   0  0  0  0  0  0  0  0  0  0  0  0
    4.9777    1.9156    0.0000 C   0  0  0  0  0  0  0  0  0  0  0  0
    4.9777    0.9577    0.0000 C   0  0  0  0  0  0  0  0  0  0  0  0
    5.8073    0.4788    0.0000 C   0  0  0  0  0  0  0  0  0  0  0  0
    6.6368    0.9577    0.0000 C   0  0  0  0  0  0  0  0  0  0  0  0
    7.4664    0.4788    0.0000 C   0  0  0  0  0  0  0  0  0  0  0  0
    7.4664   -0.4792    0.0000 C   0  0  0  0  0  0  0  0  0  0  0  0
    6.6368   -0.9581    0.0000 C   0  0  0  0  0  0  0  0  0  0  0  0
    5.8073   -0.4792    0.0000 C   0  0  0  0  0  0  0  0  0  0  0  0
    4.1481    0.4788    0.0000 C   0  0  0  0  0  0  0  0  0  0  0  0
    3.3185    0.9577    0.0000 C   0  0  0  0  0  0  0  0  0  0  0  0
    0.0001    1.9158    0.0000 C   0  0  3  0  0  0  0  0  0  0  0  0
    0.0000    0.9580    0.0000 C   0  0  0  0  0  0  0  0  0  0  0  0
   -0.8293    1.4371    0.0000 C   0  0  0  0  0  0  0  0  0  0  0  0
   -1.6587    1.9164    0.0000 C   0  0  0  0  0  0  0  0  0  0  0  0
   -2.4885    1.4378    0.0000 C   0  0  0  0  0  0  0  0  0  0  0  0
   -2.4889    0.4799    0.0000 C   0  0  0  0  0  0  0  0  0  0  0  0
   -1.6595    0.0006    0.0000 C   0  0  0  0  0  0  0  0  0  0  0  0
   -1.6599   -0.9573    0.0000 C   0  0  0  0  0  0  0  0  0  0  0  0
   -0.8305   -1.4366    0.0000 C   0  0  0  0  0  0  0  0  0  0  0  0
   -0.8309   -2.3945    0.0000 C   0  0  0  0  0  0  0  0  0  0  0  0
   -1.6606   -2.8731    0.0000 C   0  0  0  0  0  0  0  0  0  0  0  0
   -1.6610   -3.8311    0.0000 C   0  0  0  0  0  0  0  0  0  0  0  0
   -0.8316   -4.3103    0.0000 C   0  0  0  0  0  0  0  0  0  0  0  0
   -0.8320   -5.2683    0.0000 C   0  0  0  0  0  0  0  0  0  0  0  0
   -1.6618   -5.7469    0.0000 C   0  0  0  0  0  0  0  0  0  0  0  0
   -2.4911   -5.2676    0.0000 C   0  0  0  0  0  0  0  0  0  0  0  0
   -2.4908   -4.3097    0.0000 C   0  0  0  0  0  0  0  0  0  0  0  0
   -2.4900   -2.3939    0.0000 C   0  0  0  0  0  0  0  0  0  0  0  0
   -2.4896   -1.4360    0.0000 C   0  0  0  0  0  0  0  0  0  0  0  0
   -0.8297    0.4792    0.0000 C   0  0  0  0  0  0  0  0  0  0  0  0
    0.0000    0.0000    0.0000 C   0  0  0  0  0  0  0  0  0  0  0  0
  1  2  2  0  0  0  0
  2 23  1  0  0  0  0
  2 42  1  0  0  0  0
  2  3  1  0  0  0  0
  3  4  1  0  0  0  0
  4  9  2  0  0  0  0
  4  5  1  0  0  0  0
  5  6  2  0  0  0  0
  5 22  1  0  0  0  0
  6  7  1  0  0  0  0
  7  8  2  0  0  0  0
  8  9  1  0  0  0  0
  9 10  1  0  0  0  0
 10 21  2  0  0  0  0
 10 11  1  0  0  0  0
 11 12  2  0  0  0  0
 12 13  1  0  0  0  0
 13 14  1  0  0  0  0
 13 20  2  0  0  0  0
 14 19  2  0  0  0  0
 14 15  1  0  0  0  0
 15 16  2  0  0  0  0
 16 17  1  0  0  0  0
 17 18  2  0  0  0  0
 18 19  1  0  0  0  0
 20 21  1  0  0  0  0
 22 23  1  0  0  0  0
 22 24  1  0  0  0  0
 24 41  2  0  0  0  0
 24 25  1  0  0  0  0
 25 26  2  0  0  0  0
 26 27  1  0  0  0  0
 27 28  2  0  0  0  0
 28 29  1  0  0  0  0
 28 41  1  0  0  0  0
 29 40  2  0  0  0  0
 29 30  1  0  0  0  0
 30 31  2  0  0  0  0
 31 32  1  0  0  0  0
 32 33  1  0  0  0  0
 32 39  2  0  0  0  0
 33 38  2  0  0  0  0
 33 34  1  0  0  0  0
 34 35  2  0  0  0  0
 35 36  1  0  0  0  0
 36 37  2  0  0  0  0
 37 38  1  0  0  0  0
 39 40  1  0  0  0  0
 41 42  1  0  0  0  0
M  END
> <NMREDATA_VERSION>
1.1

> <NMREDATA_LEVEL>
0

> <NMREDATA_SOLVENT>
CDCl3

> <NMREDATA_FORMULA>
C40H31OP

> <NMREDATA_SMILES>
O=P12CC(c3c(C2)c(ccc3)c2ccc(cc2)c2ccccc2)c2c(C1)c(ccc2)c1ccc(cc1)c1ccccc1

> <NMREDATA_ASSIGNMENT>
P2, 31.90, 2

> <NMREDATA_1D_31P>
Larmor=162
31.90, L=P2

$$$$
