
 OpenBabel06112616482D

 35 38  0  0  1  0  0  0  0  0999 V2000
   -3.4641   -4.0000    0.0000 C   0  0  0  0  0  0  0  0  0  0  0  0
   -2.5981   -3.5000    0.0000 C   0  0  0  0  0  0  0  0  0  0  0  0
   -1.7321   -4.0000    0.0000 C   0  0  0  0  0  0  0  0  0  0  0  0
   -0.8660   -3.5000    0.0000 C   0  0  0  0  0  0  0  0  0  0  0  0
   -0.8660   -2.5000    0.0000 C   0  0  0  0  0  0  0  0  0  0  0  0
    0.0000   -2.0000    0.0000 O   0  0  0  0  0  0  0  0  0  0  0  0
    0.0000   -1.0000    0.0000 P   0  0  2  0  0  0  0  0  0  0  0  0
   -1.0000   -1.0000    0.0000 O   0  0  0  0  0  0  0  0  0  0  0  0
   -1.5000   -0.1340    0.0000 C   0  0  0  0  0  0  0  0  0  0  0  0
   -2.5000   -0.1340    0.0000 C   0  0  2  0  0  0  0  0  0  0  0  0
   -3.0878   -0.9430    0.0000 C   0  0  1  0  0  0  0  0  0  0  0  0
   -2.7788   -1.8940    0.0000 N   0  0  0  0  0  0  0  0  0  0  0  0
   -3.4479   -2.6372    0.0000 N   0  3  0  0  0  0  0  0  0  0  0  0
   -4.1170   -3.3803    0.0000 N   0  5  0  0  0  0  0  0  0  0  0  0
   -4.0388   -0.6340    0.0000 C   0  0  0  0  0  0  0  0  0  0  0  0
   -4.0388    0.3660    0.0000 C   0  0  2  0  0  0  0  0  0  0  0  0
   -4.8479    0.9538    0.0000 N   0  0  0  0  0  0  0  0  0  0  0  0
   -5.7614    0.5471    0.0000 C   0  0  0  0  0  0  0  0  0  0  0  0
   -5.8659   -0.4474    0.0000 O   0  0  0  0  0  0  0  0  0  0  0  0
   -6.5704    1.1349    0.0000 N   0  0  0  0  0  0  0  0  0  0  0  0
   -6.4659    2.1294    0.0000 C   0  0  0  0  0  0  0  0  0  0  0  0
   -7.2749    2.7172    0.0000 O   0  0  0  0  0  0  0  0  0  0  0  0
   -5.5523    2.5361    0.0000 C   0  0  0  0  0  0  0  0  0  0  0  0
   -5.4478    3.5306    0.0000 C   0  0  0  0  0  0  0  0  0  0  0  0
   -4.7433    1.9483    0.0000 C   0  0  0  0  0  0  0  0  0  0  0  0
   -3.0878    0.6750    0.0000 O   0  0  0  0  0  0  0  0  0  0  0  0
    1.0000   -1.0000    0.0000 C   0  0  0  0  0  0  0  0  0  0  0  0
    1.5000   -0.1340    0.0000 C   0  0  0  0  0  0  0  0  0  0  0  0
    2.5000   -0.1340    0.0000 C   0  0  0  0  0  0  0  0  0  0  0  0
    3.0000   -1.0000    0.0000 C   0  0  0  0  0  0  0  0  0  0  0  0
    2.5000   -1.8660    0.0000 C   0  0  0  0  0  0  0  0  0  0  0  0
    1.5000   -1.8660    0.0000 C   0  0  0  0  0  0  0  0  0  0  0  0
    0.0000    0.0000    0.0000 O   0  0  0  0  0  0  0  0  0  0  0  0
   -1.7321   -2.0000    0.0000 C   0  0  0  0  0  0  0  0  0  0  0  0
   -2.5981   -2.5000    0.0000 C   0  0  0  0  0  0  0  0  0  0  0  0
  1  2  1  0  0  0  0
  2 35  2  0  0  0  0
  2  3  1  0  0  0  0
  3  4  2  0  0  0  0
  4  5  1  0  0  0  0
  5  6  1  0  0  0  0
  5 34  2  0  0  0  0
  6  7  1  0  0  0  0
  7  8  1  0  0  0  0
  7 27  1  0  0  0  0
  7 33  2  1  0  0  0
  8  9  1  0  0  0  0
 10  9  1  6  0  0  0
 10 11  1  0  0  0  0
 10 26  1  0  0  0  0
 11 12  1  1  0  0  0
 11 15  1  0  0  0  0
 12 13  2  0  0  0  0
 13 14  2  0  0  0  0
 16 15  1  6  0  0  0
 16 17  1  0  0  0  0
 16 26  1  0  0  0  0
 17 25  1  0  0  0  0
 17 18  1  0  0  0  0
 18 19  2  0  0  0  0
 18 20  1  0  0  0  0
 20 21  1  0  0  0  0
 21 22  2  0  0  0  0
 21 23  1  0  0  0  0
 23 24  1  0  0  0  0
 23 25  2  0  0  0  0
 27 32  2  0  0  0  0
 27 28  1  0  0  0  0
 28 29  2  0  0  0  0
 29 30  1  0  0  0  0
 30 31  2  0  0  0  0
 31 32  1  0  0  0  0
 34 35  1  0  0  0  0
M  END
> <NMREDATA_VERSION>
1.1

> <NMREDATA_LEVEL>
0

> <NMREDATA_SOLVENT>
CDCl3

> <NMREDATA_FORMULA>
C23H24N5O6P

> <NMREDATA_SMILES>
[N-]=[N+]=N[C@H]1C[C@@H](O[C@@H]1CO[P@](=O)(c1ccccc1)Oc1ccc(cc1)C)n1cc(C)c(=O)[nH]c1=O

> <NMREDATA_ASSIGNMENT>
P7, 16.63, 7

> <NMREDATA_1D_31P>
Larmor=162
16.63, L=P7

$$$$
