
 OpenBabel06112616492D

 25 26  0  0  0  0  0  0  0  0999 V2000
   -2.5000    1.5981    0.0000 C    0  0  0  0  0  0  0  0  0  0  0  0
   -3.0000    0.7321    0.0000 C    0  0  0  0  0  0  0  0  0  0  0  0
   -2.5000   -0.1340    0.0000 C    0  0  0  0  0  0  0  0  0  0  0  0
   -1.5000   -0.1340    0.0000 C    0  0  0  0  0  0  0  0  0  0  0  0
   -1.0000   -1.0000    0.0000 O    0  0  0  0  0  0  0  0  0  0  0  0
    0.0000   -1.0000    0.0000 P    0  0  0  0  0  0  0  0  0  0  0  0
    0.0000   -2.0000    0.0000 O    0  0  0  0  0  0  0  0  0  0  0  0
   -0.8660   -2.5000    0.0000 C    0  0  0  0  0  0  0  0  0  0  0  0
   -0.8660   -3.5000    0.0000 C    0  0  0  0  0  0  0  0  0  0  0  0
   -1.7321   -4.0000    0.0000 C    0  0  0  0  0  0  0  0  0  0  0  0
   -1.7321   -5.0000    0.0000 C    0  0  0  0  0  0  0  0  0  0  0  0
    1.0000   -1.0000    0.0000 C    0  0  0  0  0  0  0  0  0  0  0  0
    1.5000   -0.1340    0.0000 C    0  0  0  0  0  0  0  0  0  0  0  0
    1.0000    0.7321    0.0000 C    0  0  0  0  0  0  0  0  0  0  0  0
    2.5000   -0.1340    0.0000 N    0  0  0  0  0  0  0  0  0  0  0  0
    3.0000   -1.0000    0.0000 C    0  0  0  0  0  0  0  0  0  0  0  0
    2.5000   -1.8660    0.0000 N    0  0  0  0  0  0  0  0  0  0  0  0
    1.5000   -1.8660    0.0000 C    0  0  0  0  0  0  0  0  0  0  0  0
    1.0000   -2.7321    0.0000 O    0  0  0  0  0  0  0  0  0  0  0  0
    3.0000   -2.7321    0.0000 C    0  0  0  0  0  0  0  0  0  0  0  0
    4.0000   -2.7321    0.0000 C    0  0  0  0  0  0  0  0  0  0  0  0
    4.5000   -3.5981    0.0000 Cl   0  0  0  0  0  0  0  0  0  0  0  0
    4.5000   -1.8660    0.0000 C    0  0  0  0  0  0  0  0  0  0  0  0
    4.0000   -1.0000    0.0000 C    0  0  0  0  0  0  0  0  0  0  0  0
    0.0000    0.0000    0.0000 O    0  0  0  0  0  0  0  0  0  0  0  0
  1  2  1  0  0  0  0
  2  3  1  0  0  0  0
  3  4  1  0  0  0  0
  4  5  1  0  0  0  0
  5  6  1  0  0  0  0
  6  7  1  0  0  0  0
  6 12  1  0  0  0  0
  6 25  2  0  0  0  0
  7  8  1  0  0  0  0
  8  9  1  0  0  0  0
  9 10  1  0  0  0  0
 10 11  1  0  0  0  0
 12 18  1  0  0  0  0
 12 13  2  0  0  0  0
 13 14  1  0  0  0  0
 13 15  1  0  0  0  0
 15 16  2  0  0  0  0
 16 24  1  0  0  0  0
 16 17  1  0  0  0  0
 17 18  1  0  0  0  0
 17 20  1  0  0  0  0
 18 19  2  0  0  0  0
 20 21  2  0  0  0  0
 21 22  1  0  0  0  0
 21 23  1  0  0  0  0
 23 24  2  0  0  0  0
M  END
> <NMREDATA_VERSION>
1.1

> <NMREDATA_LEVEL>
0

> <NMREDATA_SOLVENT>
CDCl3

> <NMREDATA_FORMULA>
C17H24ClN2O4P

> <NMREDATA_SMILES>
CCCCOP(=O)(c1c(C)nc2n(c1=O)cc(cc2)Cl)OCCCC

> <NMREDATA_ASSIGNMENT>
P6, 15.51, 6

> <NMREDATA_1D_31P>
Larmor=162
15.51, L=P6

$$$$
