
 OpenBabel06112616452D

 24 26  0  0  0  0  0  0  0  0999 V2000
   -0.8660    0.5000    0.0000 C   0  0  0  0  0  0  0  0  0  0  0  0
   -1.7321    0.0000    0.0000 C   0  0  0  0  0  0  0  0  0  0  0  0
   -1.7321   -1.0000    0.0000 C   0  0  0  0  0  0  0  0  0  0  0  0
   -2.5981   -1.5000    0.0000 C   0  0  0  0  0  0  0  0  0  0  0  0
   -3.4641   -1.0000    0.0000 C   0  0  0  0  0  0  0  0  0  0  0  0
   -4.3301   -1.5000    0.0000 C   0  0  0  0  0  0  0  0  0  0  0  0
   -3.4641    0.0000    0.0000 C   0  0  0  0  0  0  0  0  0  0  0  0
   -4.3301    0.5000    0.0000 C   0  0  0  0  0  0  0  0  0  0  0  0
   -2.5981    0.5000    0.0000 C   0  0  0  0  0  0  0  0  0  0  0  0
   -2.5981    1.5000    0.0000 O   0  0  0  0  0  0  0  0  0  0  0  0
   -3.4641    2.0000    0.0000 P   0  0  0  0  0  0  0  0  0  0  0  0
   -4.2575    1.3912    0.0000 O   0  0  0  0  0  0  0  0  0  0  0  0
   -4.4300    2.2588    0.0000 O   0  0  0  0  0  0  0  0  0  0  0  0
   -4.6888    3.2247    0.0000 C   0  0  0  0  0  0  0  0  0  0  0  0
   -3.9817    3.9319    0.0000 C   0  0  0  0  0  0  0  0  0  0  0  0
   -3.7229    4.8978    0.0000 C   0  0  0  0  0  0  0  0  0  0  0  0
   -4.6888    4.6390    0.0000 C   0  0  0  0  0  0  0  0  0  0  0  0
   -3.0158    3.6730    0.0000 C   0  0  0  0  0  0  0  0  0  0  0  0
   -2.7570    2.7071    0.0000 O   0  0  0  0  0  0  0  0  0  0  0  0
   -0.8660    1.5000    0.0000 C   0  0  0  0  0  0  0  0  0  0  0  0
    0.0000    2.0000    0.0000 C   0  0  0  0  0  0  0  0  0  0  0  0
    0.8660    1.5000    0.0000 C   0  0  0  0  0  0  0  0  0  0  0  0
    0.8660    0.5000    0.0000 C   0  0  0  0  0  0  0  0  0  0  0  0
    0.0000    0.0000    0.0000 C   0  0  0  0  0  0  0  0  0  0  0  0
  1 24  2  0  0  0  0
  1  2  1  0  0  0  0
  1 20  1  0  0  0  0
  2  9  2  0  0  0  0
  2  3  1  0  0  0  0
  3  4  2  0  0  0  0
  4  5  1  0  0  0  0
  5  6  1  0  0  0  0
  5  7  2  0  0  0  0
  7  8  1  0  0  0  0
  7  9  1  0  0  0  0
  9 10  1  0  0  0  0
 10 11  1  0  0  0  0
 11 19  1  0  0  0  0
 11 12  2  0  0  0  0
 11 13  1  0  0  0  0
 13 14  1  0  0  0  0
 14 15  1  0  0  0  0
 15 16  1  0  0  0  0
 15 17  1  0  0  0  0
 15 18  1  0  0  0  0
 18 19  1  0  0  0  0
 20 21  2  0  0  0  0
 21 22  1  0  0  0  0
 22 23  2  0  0  0  0
 23 24  1  0  0  0  0
M  END
> <NMREDATA_VERSION>
1.1

> <NMREDATA_LEVEL>
0

> <NMREDATA_SOLVENT>
CDCl3

> <NMREDATA_FORMULA>
C19H23O4P

> <NMREDATA_SMILES>
Cc1ccc(c(c1C)OP1(=O)OCC(CO1)(C)C)c1ccccc1

> <NMREDATA_ASSIGNMENT>
P11, -14.00, 11

> <NMREDATA_1D_31P>
Larmor=162
-14.00, L=P11

$$$$
