
 OpenBabel06112616462D

 41 47  0  0  1  0  0  0  0  0999 V2000
    1.8155    4.5046    0.0000 C   0  0  0  0  0  0  0  0  0  0  0  0
    2.0234    3.5265    0.0000 C   0  0  0  0  0  0  0  0  0  0  0  0
    1.2803    2.8573    0.0000 C   0  0  0  0  0  0  0  0  0  0  0  0
    1.4882    1.8792    0.0000 C   0  0  0  0  0  0  0  0  0  0  0  0
    0.7451    1.2101    0.0000 C   0  0  0  0  0  0  0  0  0  0  0  0
   -0.2060    1.5191    0.0000 C   0  0  0  0  0  0  0  0  0  0  0  0
   -0.4139    2.4972    0.0000 C   0  0  0  0  0  0  0  0  0  0  0  0
   -1.3650    2.8062    0.0000 C   0  0  0  0  0  0  0  0  0  0  0  0
   -2.1081    2.1371    0.0000 C   0  0  0  0  0  0  0  0  0  0  0  0
   -1.9002    1.1590    0.0000 C   0  0  0  0  0  0  0  0  0  0  0  0
   -0.9491    0.8499    0.0000 C   0  0  0  0  0  0  0  0  0  0  0  0
   -0.7412   -0.1282    0.0000 C   0  0  0  0  0  0  0  0  0  0  0  0
    0.2098   -0.4372    0.0000 C   0  0  2  0  0  0  0  0  0  0  0  0
    0.6166   -1.3508    0.0000 C   0  0  0  0  0  0  0  0  0  0  0  0
    1.6111   -1.2462    0.0000 C   0  0  0  0  0  0  0  0  0  0  0  0
    2.1989   -2.0553    0.0000 C   0  0  0  0  0  0  0  0  0  0  0  0
    1.7921   -2.9688    0.0000 C   0  0  0  0  0  0  0  0  0  0  0  0
    0.7976   -3.0733    0.0000 C   0  0  0  0  0  0  0  0  0  0  0  0
    0.2098   -2.2643    0.0000 C   0  0  0  0  0  0  0  0  0  0  0  0
    1.8190   -0.2681    0.0000 O   0  0  0  0  0  0  0  0  0  0  0  0
    0.9530    0.2319    0.0000 C   0  0  0  0  0  0  0  0  0  0  0  0
   -0.8660    1.5000    0.0000 P   0  0  0  0  0  0  0  0  0  0  0  0
   -1.7321    1.0000    0.0000 C   0  0  0  0  0  0  0  0  0  0  0  0
   -1.7321    0.0000    0.0000 C   0  0  0  0  0  0  0  0  0  0  0  0
   -2.5981   -0.5000    0.0000 C   0  0  0  0  0  0  0  0  0  0  0  0
   -3.4641    0.0000    0.0000 C   0  0  0  0  0  0  0  0  0  0  0  0
   -3.4641    1.0000    0.0000 C   0  0  0  0  0  0  0  0  0  0  0  0
   -2.5981    1.5000    0.0000 C   0  0  0  0  0  0  0  0  0  0  0  0
    0.0000    1.0000    0.0000 C   0  0  0  0  0  0  0  0  0  0  0  0
    0.8660    1.5000    0.0000 C   0  0  0  0  0  0  0  0  0  0  0  0
    1.7321    1.0000    0.0000 C   0  0  0  0  0  0  0  0  0  0  0  0
    1.7321    0.0000    0.0000 C   0  0  0  0  0  0  0  0  0  0  0  0
    0.8660   -0.5000    0.0000 C   0  0  0  0  0  0  0  0  0  0  0  0
    0.0000    0.0000    0.0000 C   0  0  0  0  0  0  0  0  0  0  0  0
   -0.8660    2.5000    0.0000 O   0  0  0  0  0  0  0  0  0  0  0  0
   -2.6433    0.4898    0.0000 C   0  0  0  0  0  0  0  0  0  0  0  0
   -1.5729    3.7844    0.0000 C   0  0  0  0  0  0  0  0  0  0  0  0
    2.4393    1.5702    0.0000 C   0  0  0  0  0  0  0  0  0  0  0  0
    3.1824    2.2393    0.0000 C   0  0  0  0  0  0  0  0  0  0  0  0
    4.1335    1.9303    0.0000 C   0  0  0  0  0  0  0  0  0  0  0  0
    2.9745    3.2174    0.0000 C   0  0  0  0  0  0  0  0  0  0  0  0
  1  2  1  0  0  0  0
  2 41  2  0  0  0  0
  2  3  1  0  0  0  0
  3  4  2  0  0  0  0
  4  5  1  0  0  0  0
  4 38  1  0  0  0  0
  5 21  2  0  0  0  0
  5  6  1  0  0  0  0
  6 11  2  0  0  0  0
  6  7  1  0  0  0  0
  7  8  2  0  0  0  0
  8  9  1  0  0  0  0
  8 37  1  0  0  0  0
  9 10  2  0  0  0  0
 10 11  1  0  0  0  0
 10 36  1  0  0  0  0
 11 12  1  0  0  0  0
 12 13  1  0  0  0  0
 13 21  1  0  0  0  0
 13 14  1  0  0  0  0
 13 22  1  6  0  0  0
 14 19  2  0  0  0  0
 14 15  1  0  0  0  0
 15 16  2  0  0  0  0
 15 20  1  0  0  0  0
 16 17  1  0  0  0  0
 17 18  2  0  0  0  0
 18 19  1  0  0  0  0
 20 21  1  0  0  0  0
 22 23  1  0  0  0  0
 22 29  1  0  0  0  0
 22 35  2  0  0  0  0
 23 28  2  0  0  0  0
 23 24  1  0  0  0  0
 24 25  2  0  0  0  0
 25 26  1  0  0  0  0
 26 27  2  0  0  0  0
 27 28  1  0  0  0  0
 29 34  2  0  0  0  0
 29 30  1  0  0  0  0
 30 31  2  0  0  0  0
 31 32  1  0  0  0  0
 32 33  2  0  0  0  0
 33 34  1  0  0  0  0
 38 39  2  0  0  0  0
 39 40  1  0  0  0  0
 39 41  1  0  0  0  0
M  END
> <NMREDATA_VERSION>
1.1

> <NMREDATA_LEVEL>
0

> <NMREDATA_SOLVENT>
CDCl3

> <NMREDATA_FORMULA>
C38H33O2P

> <NMREDATA_SMILES>
Cc1cc(C)cc(c1)C1=C2Oc3c([C@]2(Cc2c1cc(C)cc2C)P(=O)(c1ccccc1)c1ccccc1)cccc3

> <NMREDATA_ASSIGNMENT>
P22, 27.73, 22

> <NMREDATA_1D_31P>
Larmor=202
27.73, L=P22

$$$$
