
 OpenBabel06112616472D

 38 42  0  0  0  0  0  0  0  0999 V2000
   -0.4884   -6.8979    0.0000 C   0  0  0  0  0  0  0  0  0  0  0  0
    0.0000   -6.0521    0.0000 O   0  0  0  0  0  0  0  0  0  0  0  0
   -0.4884   -5.2062    0.0000 C   0  0  0  0  0  0  0  0  0  0  0  0
   -1.4651   -5.2062    0.0000 C   0  0  0  0  0  0  0  0  0  0  0  0
   -1.9535   -4.3603    0.0000 C   0  0  0  0  0  0  0  0  0  0  0  0
   -1.4651   -3.5144    0.0000 C   0  0  0  0  0  0  0  0  0  0  0  0
   -1.9535   -2.6685    0.0000 C   0  0  0  0  0  0  0  0  0  0  0  0
   -0.9767   -0.9767    0.0000 C   0  0  0  0  0  0  0  0  0  0  0  0
    0.0000   -0.9767    0.0000 P   0  0  0  0  0  0  0  0  0  0  0  0
    0.0000   -1.9535    0.0000 O   0  0  0  0  0  0  0  0  0  0  0  0
    0.9767   -0.9767    0.0000 C   0  0  0  0  0  0  0  0  0  0  0  0
    1.4651   -0.1309    0.0000 C   0  0  0  0  0  0  0  0  0  0  0  0
    2.4419   -0.1309    0.0000 C   0  0  0  0  0  0  0  0  0  0  0  0
    2.9302   -0.9767    0.0000 C   0  0  0  0  0  0  0  0  0  0  0  0
    2.4419   -1.8226    0.0000 C   0  0  0  0  0  0  0  0  0  0  0  0
    1.4651   -1.8226    0.0000 C   0  0  0  0  0  0  0  0  0  0  0  0
    0.0000    0.0000    0.0000 C   0  0  0  0  0  0  0  0  0  0  0  0
   -0.8459    0.4884    0.0000 C   0  0  0  0  0  0  0  0  0  0  0  0
   -0.8459    1.4651    0.0000 C   0  0  0  0  0  0  0  0  0  0  0  0
    0.0000    1.9535    0.0000 C   0  0  0  0  0  0  0  0  0  0  0  0
    0.8459    1.4651    0.0000 C   0  0  0  0  0  0  0  0  0  0  0  0
    0.8459    0.4884    0.0000 C   0  0  0  0  0  0  0  0  0  0  0  0
   -2.9302   -2.6685    0.0000 N   0  0  0  0  0  0  0  0  0  0  0  0
   -3.4186   -1.8226    0.0000 C   0  0  0  0  0  0  0  0  0  0  0  0
   -2.9302   -0.9767    0.0000 C   0  0  0  0  0  0  0  0  0  0  0  0
   -3.4186   -0.1309    0.0000 C   0  0  0  0  0  0  0  0  0  0  0  0
   -2.9302    0.7150    0.0000 C   0  0  0  0  0  0  0  0  0  0  0  0
   -1.9535    0.7150    0.0000 C   0  0  0  0  0  0  0  0  0  0  0  0
   -1.4651   -0.1309    0.0000 C   0  0  0  0  0  0  0  0  0  0  0  0
   -1.9535   -0.9767    0.0000 C   0  0  0  0  0  0  0  0  0  0  0  0
   -4.3953   -1.8226    0.0000 C   0  0  0  0  0  0  0  0  0  0  0  0
   -4.8837   -2.6685    0.0000 C   0  0  0  0  0  0  0  0  0  0  0  0
   -5.8605   -2.6685    0.0000 C   0  0  0  0  0  0  0  0  0  0  0  0
   -6.3488   -1.8226    0.0000 C   0  0  0  0  0  0  0  0  0  0  0  0
   -5.8605   -0.9767    0.0000 C   0  0  0  0  0  0  0  0  0  0  0  0
   -4.8837   -0.9767    0.0000 C   0  0  0  0  0  0  0  0  0  0  0  0
   -0.4884   -3.5144    0.0000 C   0  0  0  0  0  0  0  0  0  0  0  0
    0.0000   -4.3603    0.0000 C   0  0  0  0  0  0  0  0  0  0  0  0
  1  2  1  0  0  0  0
  2  3  1  0  0  0  0
  3 38  2  0  0  0  0
  3  4  1  0  0  0  0
  4  5  2  0  0  0  0
  5  6  1  0  0  0  0
  6  7  1  0  0  0  0
  6 37  2  0  0  0  0
  7  8  2  0  0  0  0
  7 23  1  0  0  0  0
  8  9  1  0  0  0  0
  9 10  2  0  0  0  0
  9 11  1  0  0  0  0
  9 17  1  0  0  0  0
 11 16  2  0  0  0  0
 11 12  1  0  0  0  0
 12 13  2  0  0  0  0
 13 14  1  0  0  0  0
 14 15  2  0  0  0  0
 15 16  1  0  0  0  0
 17 22  2  0  0  0  0
 17 18  1  0  0  0  0
 18 19  2  0  0  0  0
 19 20  1  0  0  0  0
 20 21  2  0  0  0  0
 21 22  1  0  0  0  0
 23 24  2  0  0  0  0
 24 25  1  0  0  0  0
 24 31  1  0  0  0  0
 25 30  2  0  0  0  0
 25 26  1  0  0  0  0
 26 27  2  0  0  0  0
 27 28  1  0  0  0  0
 28 29  2  0  0  0  0
 29 30  1  0  0  0  0
 31 36  2  0  0  0  0
 31 32  1  0  0  0  0
 32 33  2  0  0  0  0
 33 34  1  0  0  0  0
 34 35  2  0  0  0  0
 35 36  1  0  0  0  0
 37 38  1  0  0  0  0
M  END
> <NMREDATA_VERSION>
1.1

> <NMREDATA_LEVEL>
0

> <NMREDATA_SOLVENT>
CDCl3

> <NMREDATA_FORMULA>
C34H28NO2P

> <NMREDATA_SMILES>
COc1ccc(cc1)/C(=C\P(=O)(c1ccccc1)c1ccccc1)/N=C(c1ccccc1)c1ccccc1

> <NMREDATA_ASSIGNMENT>
P9, 19.79, 9

> <NMREDATA_1D_31P>
Larmor=162
19.79, L=P9

$$$$
