
 OpenBabel06112616462D

 28 32  0  0  0  0  0  0  0  0999 V2000
   -0.8660   -1.5000    0.0000 P   0  0  0  0  0  0  0  0  0  0  0  0
   -1.7321   -2.0000    0.0000 C   0  0  0  0  0  0  0  0  0  0  0  0
   -1.8366   -2.9945    0.0000 C   0  0  0  0  0  0  0  0  0  0  0  0
   -2.8147   -3.2024    0.0000 C   0  0  0  0  0  0  0  0  0  0  0  0
   -3.3147   -4.0685    0.0000 C   0  0  0  0  0  0  0  0  0  0  0  0
   -4.3147   -4.0685    0.0000 C   0  0  0  0  0  0  0  0  0  0  0  0
   -4.8147   -3.2024    0.0000 C   0  0  0  0  0  0  0  0  0  0  0  0
   -4.3147   -2.3364    0.0000 C   0  0  0  0  0  0  0  0  0  0  0  0
   -3.3147   -2.3364    0.0000 C   0  0  0  0  0  0  0  0  0  0  0  0
   -2.6456   -1.5933    0.0000 N   0  0  0  0  0  0  0  0  0  0  0  0
   -2.8535   -0.6151    0.0000 C   0  0  0  0  0  0  0  0  0  0  0  0
   -3.8046   -0.3061    0.0000 C   0  0  0  0  0  0  0  0  0  0  0  0
   -4.0125    0.6720    0.0000 C   0  0  0  0  0  0  0  0  0  0  0  0
   -3.2693    1.3412    0.0000 C   0  0  0  0  0  0  0  0  0  0  0  0
   -2.3183    1.0322    0.0000 C   0  0  0  0  0  0  0  0  0  0  0  0
   -2.1104    0.0540    0.0000 C   0  0  0  0  0  0  0  0  0  0  0  0
    0.0000   -2.0000    0.0000 C   0  0  0  0  0  0  0  0  0  0  0  0
    0.8660   -1.5000    0.0000 C   0  0  0  0  0  0  0  0  0  0  0  0
    1.7321   -2.0000    0.0000 C   0  0  0  0  0  0  0  0  0  0  0  0
    1.7321   -3.0000    0.0000 C   0  0  0  0  0  0  0  0  0  0  0  0
    0.8660   -3.5000    0.0000 C   0  0  0  0  0  0  0  0  0  0  0  0
    0.0000   -3.0000    0.0000 C   0  0  0  0  0  0  0  0  0  0  0  0
   -0.8660   -0.5000    0.0000 C   0  0  0  0  0  0  0  0  0  0  0  0
   -1.7321    0.0000    0.0000 C   0  0  0  0  0  0  0  0  0  0  0  0
   -1.7321    1.0000    0.0000 C   0  0  0  0  0  0  0  0  0  0  0  0
   -0.8660    1.5000    0.0000 C   0  0  0  0  0  0  0  0  0  0  0  0
    0.0000    1.0000    0.0000 C   0  0  0  0  0  0  0  0  0  0  0  0
    0.0000    0.0000    0.0000 C   0  0  0  0  0  0  0  0  0  0  0  0
  1  2  1  0  0  0  0
  1 17  1  0  0  0  0
  1 23  1  0  0  0  0
  2 10  1  0  0  0  0
  2  3  2  0  0  0  0
  3  4  1  0  0  0  0
  4  9  2  0  0  0  0
  4  5  1  0  0  0  0
  5  6  2  0  0  0  0
  6  7  1  0  0  0  0
  7  8  2  0  0  0  0
  8  9  1  0  0  0  0
  9 10  1  0  0  0  0
 10 11  1  0  0  0  0
 11 16  2  0  0  0  0
 11 12  1  0  0  0  0
 12 13  2  0  0  0  0
 13 14  1  0  0  0  0
 14 15  2  0  0  0  0
 15 16  1  0  0  0  0
 17 22  2  0  0  0  0
 17 18  1  0  0  0  0
 18 19  2  0  0  0  0
 19 20  1  0  0  0  0
 20 21  2  0  0  0  0
 21 22  1  0  0  0  0
 23 28  2  0  0  0  0
 23 24  1  0  0  0  0
 24 25  2  0  0  0  0
 25 26  1  0  0  0  0
 26 27  2  0  0  0  0
 27 28  1  0  0  0  0
M  END
> <NMREDATA_VERSION>
1.1

> <NMREDATA_LEVEL>
0

> <NMREDATA_SOLVENT>
CDCl3

> <NMREDATA_FORMULA>
C26H20NP

> <NMREDATA_SMILES>
c1ccc(cc1)P(c1cc2c(n1c1ccccc1)cccc2)c1ccccc1

> <NMREDATA_ASSIGNMENT>
P1, -28.15, 1

> <NMREDATA_1D_31P>
Larmor=162
-28.15, L=P1

$$$$
