
 OpenBabel06112616482D

 34 39  0  0  0  0  0  0  0  0999 V2000
    1.5011    0.0000    0.0000 C   0  0  0  0  0  0  0  0  0  0  0  0
    0.7506   -0.4333    0.0000 C   0  0  0  0  0  0  0  0  0  0  0  0
    0.7506   -1.3000    0.0000 C   0  0  0  0  0  0  0  0  0  0  0  0
    0.0000   -1.7333    0.0000 C   0  0  0  0  0  0  0  0  0  0  0  0
   -0.7506   -1.3000    0.0000 C   0  0  0  0  0  0  0  0  0  0  0  0
   -1.5011   -1.7333    0.0000 C   0  0  0  0  0  0  0  0  0  0  0  0
   -2.2517   -1.3000    0.0000 C   0  0  0  0  0  0  0  0  0  0  0  0
   -5.2539   -3.0333    0.0000 C   0  0  0  0  0  0  0  0  0  0  0  0
   -5.2539   -3.9000    0.0000 C   0  0  0  0  0  0  0  0  0  0  0  0
   -6.0044   -4.3333    0.0000 C   0  0  0  0  0  0  0  0  0  0  0  0
   -6.7550   -3.9000    0.0000 C   0  0  0  0  0  0  0  0  0  0  0  0
   -6.7550   -3.0333    0.0000 C   0  0  0  0  0  0  0  0  0  0  0  0
   -7.5056   -2.6000    0.0000 C   0  0  0  0  0  0  0  0  0  0  0  0
   -7.5056   -1.7333    0.0000 C   0  0  0  0  0  0  0  0  0  0  0  0
   -6.7550   -1.3000    0.0000 C   0  0  0  0  0  0  0  0  0  0  0  0
   -6.0044   -1.7333    0.0000 C   0  0  0  0  0  0  0  0  0  0  0  0
   -5.2539   -1.3000    0.0000 P   0  0  0  0  0  0  0  0  0  0  0  0
   -2.2517   -3.0333    0.0000 C   0  0  0  0  0  0  0  0  0  0  0  0
   -1.5011   -2.6000    0.0000 C   0  0  0  0  0  0  0  0  0  0  0  0
   -0.7506   -3.0333    0.0000 C   0  0  0  0  0  0  0  0  0  0  0  0
   -0.7506   -3.9000    0.0000 C   0  0  0  0  0  0  0  0  0  0  0  0
   -1.5011   -4.3333    0.0000 C   0  0  0  0  0  0  0  0  0  0  0  0
   -2.2517   -3.9000    0.0000 C   0  0  0  0  0  0  0  0  0  0  0  0
   -5.2539   -0.4333    0.0000 C   0  0  0  0  0  0  0  0  0  0  0  0
   -6.0044    0.0000    0.0000 C   0  0  0  0  0  0  0  0  0  0  0  0
   -6.0044    0.8667    0.0000 C   0  0  0  0  0  0  0  0  0  0  0  0
   -5.2539    1.3000    0.0000 C   0  0  0  0  0  0  0  0  0  0  0  0
   -4.5033    0.8667    0.0000 C   0  0  0  0  0  0  0  0  0  0  0  0
   -4.5033    0.0000    0.0000 C   0  0  0  0  0  0  0  0  0  0  0  0
   -6.0044   -2.6000    0.0000 C   0  0  0  0  0  0  0  0  0  0  0  0
   -2.2517   -0.4333    0.0000 C   0  0  0  0  0  0  0  0  0  0  0  0
   -1.5011    0.0000    0.0000 C   0  0  0  0  0  0  0  0  0  0  0  0
   -0.7506   -0.4333    0.0000 C   0  0  0  0  0  0  0  0  0  0  0  0
    0.0000    0.0000    0.0000 N   0  0  0  0  0  0  0  0  0  0  0  0
  1  2  1  0  0  0  0
  2 34  2  0  0  0  0
  2  3  1  0  0  0  0
  3  4  2  0  0  0  0
  4  5  1  0  0  0  0
  5 33  2  0  0  0  0
  5  6  1  0  0  0  0
  6  7  2  0  0  0  0
  7  8  1  0  0  0  0
  7 31  1  0  0  0  0
  8 30  2  0  0  0  0
  8  9  1  0  0  0  0
  9 10  2  0  0  0  0
 10 11  1  0  0  0  0
 11 12  2  0  0  0  0
 12 30  1  0  0  0  0
 12 13  1  0  0  0  0
 13 14  2  0  0  0  0
 14 15  1  0  0  0  0
 15 16  2  0  0  0  0
 16 17  1  0  0  0  0
 16 30  1  0  0  0  0
 17 18  1  0  0  0  0
 17 24  1  0  0  0  0
 18 23  2  0  0  0  0
 18 19  1  0  0  0  0
 19 20  2  0  0  0  0
 20 21  1  0  0  0  0
 21 22  2  0  0  0  0
 22 23  1  0  0  0  0
 24 29  2  0  0  0  0
 24 25  1  0  0  0  0
 25 26  2  0  0  0  0
 26 27  1  0  0  0  0
 27 28  2  0  0  0  0
 28 29  1  0  0  0  0
 31 32  2  0  0  0  0
 32 33  1  0  0  0  0
 33 34  1  0  0  0  0
M  END
> <NMREDATA_VERSION>
1.1

> <NMREDATA_LEVEL>
0

> <NMREDATA_SOLVENT>
CDCl3

> <NMREDATA_FORMULA>
C32H24NP

> <NMREDATA_SMILES>
Cc1ccc2c(n1)ccc(c2)c1cccc2c1c(ccc2)P(c1ccccc1)c1ccccc1

> <NMREDATA_ASSIGNMENT>
P17, -8.30, 17

> <NMREDATA_1D_31P>
Larmor=162
-8.30, L=P17

$$$$
