
 OpenBabel06112616482D

 27 27  0  0  1  0  0  0  0  0999 V2000
   -5.0622    0.5000    0.0000 C    0  0  0  0  0  0  0  0  0  0  0  0
   -4.1962    0.0000    0.0000 C    0  0  0  0  0  0  0  0  0  0  0  0
   -3.3301    0.5000    0.0000 C    0  0  0  0  0  0  0  0  0  0  0  0
   -2.4641    0.0000    0.0000 C    0  0  0  0  0  0  0  0  0  0  0  0
   -1.5981    0.5000    0.0000 C    0  0  0  0  0  0  0  0  0  0  0  0
   -2.4641   -1.0000    0.0000 C    0  0  0  0  0  0  0  0  0  0  0  0
   -1.5981   -1.5000    0.0000 N    0  0  0  0  0  0  0  0  0  0  0  0
   -0.7321   -1.0000    0.0000 C    0  0  3  0  0  0  0  0  0  0  0  0
    0.1340   -1.5000    0.0000 N    0  0  0  0  0  0  0  0  0  0  0  0
    0.1340   -2.5000    0.0000 C    0  0  0  0  0  0  0  0  0  0  0  0
    1.0000   -3.0000    0.0000 C    0  0  0  0  0  0  0  0  0  0  0  0
    1.0000   -4.0000    0.0000 C    0  0  0  0  0  0  0  0  0  0  0  0
    1.8660   -2.5000    0.0000 C    0  0  0  0  0  0  0  0  0  0  0  0
    1.0000   -1.0000    0.0000 C    0  0  0  0  0  0  0  0  0  0  0  0
    1.0000    0.0000    0.0000 P    0  0  0  0  0  0  0  0  0  0  0  0
    2.0000    0.0000    0.0000 O    0  0  0  0  0  0  0  0  0  0  0  0
    2.5000    0.8660    0.0000 C    0  0  0  0  0  0  0  0  0  0  0  0
    3.5000    0.8660    0.0000 C    0  0  0  0  0  0  0  0  0  0  0  0
    1.0000    1.0000    0.0000 O    0  0  0  0  0  0  0  0  0  0  0  0
    1.8660    1.5000    0.0000 C    0  0  0  0  0  0  0  0  0  0  0  0
    1.8660    2.5000    0.0000 C    0  0  0  0  0  0  0  0  0  0  0  0
    0.0000    0.0000    0.0000 O    0  0  0  0  0  0  0  0  0  0  0  0
   -0.7321    0.0000    0.0000 Au   0  0  0  0  0  0  0  0  0  0  0  0
    0.1340    0.5000    0.0000 Cl   0  0  0  0  0  0  0  0  0  0  0  0
   -3.3301   -1.5000    0.0000 C    0  0  0  0  0  0  0  0  0  0  0  0
   -3.3301   -2.5000    0.0000 C    0  0  0  0  0  0  0  0  0  0  0  0
   -4.1962   -1.0000    0.0000 C    0  0  0  0  0  0  0  0  0  0  0  0
  1  2  1  0  0  0  0
  2 27  2  0  0  0  0
  2  3  1  0  0  0  0
  3  4  2  0  0  0  0
  4  5  1  0  0  0  0
  4  6  1  0  0  0  0
  6  7  1  0  0  0  0
  6 25  2  0  0  0  0
  7  8  1  0  0  0  0
  8  9  1  0  0  0  0
  8 23  1  0  0  0  0
  9 10  1  0  0  0  0
  9 14  1  0  0  0  0
 10 11  1  0  0  0  0
 11 12  1  0  0  0  0
 11 13  1  0  0  0  0
 14 15  1  0  0  0  0
 15 16  1  0  0  0  0
 15 19  1  0  0  0  0
 15 22  2  0  0  0  0
 16 17  1  0  0  0  0
 17 18  1  0  0  0  0
 19 20  1  0  0  0  0
 20 21  1  0  0  0  0
 23 24  1  0  0  0  0
 25 26  1  0  0  0  0
 25 27  1  0  0  0  0
M  END
> <NMREDATA_VERSION>
1.1

> <NMREDATA_LEVEL>
0

> <NMREDATA_SOLVENT>
CDCl3

> <NMREDATA_FORMULA>
C19H34AuClN2O3P

> <NMREDATA_SMILES>
CCOP(=O)(CN(C(Nc1c(C)cc(cc1C)C)[Au]Cl)CC(C)C)OCC

> <NMREDATA_ASSIGNMENT>
P15, 19.58, 15

> <NMREDATA_1D_31P>
Larmor=300
19.58, L=P15

$$$$
