
 OpenBabel06112616422D

 39 42  0  0  0  0  0  0  0  0999 V2000
    5.1390   -0.3115    0.0000 C   0  0  0  0  0  0  0  0  0  0  0  0
    4.2467    0.0857    0.0000 O   0  0  0  0  0  0  0  0  0  0  0  0
    3.4565   -0.4884    0.0000 C   0  0  0  0  0  0  0  0  0  0  0  0
    3.4565   -1.4651    0.0000 O   0  0  0  0  0  0  0  0  0  0  0  0
    2.5276   -1.7669    0.0000 C   0  0  0  0  0  0  0  0  0  0  0  0
    2.2258   -2.6959    0.0000 C   0  0  0  0  0  0  0  0  0  0  0  0
    2.8793   -3.4217    0.0000 C   0  0  0  0  0  0  0  0  0  0  0  0
    2.5775   -4.3507    0.0000 C   0  0  0  0  0  0  0  0  0  0  0  0
    1.6221   -4.5538    0.0000 C   0  0  0  0  0  0  0  0  0  0  0  0
    0.9685   -3.8279    0.0000 C   0  0  0  0  0  0  0  0  0  0  0  0
    1.2704   -2.8990    0.0000 C   0  0  0  0  0  0  0  0  0  0  0  0
    1.9535   -0.9767    0.0000 C   0  0  0  0  0  0  0  0  0  0  0  0
    0.0000   -0.9767    0.0000 P   0  0  0  0  0  0  0  0  0  0  0  0
    0.0000   -1.9535    0.0000 O   0  0  0  0  0  0  0  0  0  0  0  0
   -0.9767   -0.9767    0.0000 C   0  0  0  0  0  0  0  0  0  0  0  0
   -1.4651   -0.1309    0.0000 C   0  0  0  0  0  0  0  0  0  0  0  0
   -2.4419   -0.1309    0.0000 C   0  0  0  0  0  0  0  0  0  0  0  0
   -2.9302   -0.9767    0.0000 C   0  0  0  0  0  0  0  0  0  0  0  0
   -3.9070   -0.9767    0.0000 C   0  0  0  0  0  0  0  0  0  0  0  0
   -4.7529   -0.4884    0.0000 C   0  0  0  0  0  0  0  0  0  0  0  0
   -3.9070    0.0000    0.0000 C   0  0  0  0  0  0  0  0  0  0  0  0
   -4.3953   -1.8226    0.0000 C   0  0  0  0  0  0  0  0  0  0  0  0
   -2.4419   -1.8226    0.0000 C   0  0  0  0  0  0  0  0  0  0  0  0
   -1.4651   -1.8226    0.0000 C   0  0  0  0  0  0  0  0  0  0  0  0
    0.0000    0.0000    0.0000 C   0  0  0  0  0  0  0  0  0  0  0  0
    0.8459    0.4884    0.0000 C   0  0  0  0  0  0  0  0  0  0  0  0
    0.8459    1.4651    0.0000 C   0  0  0  0  0  0  0  0  0  0  0  0
    0.0000    1.9535    0.0000 C   0  0  0  0  0  0  0  0  0  0  0  0
    0.0000    2.9302    0.0000 C   0  0  0  0  0  0  0  0  0  0  0  0
    0.4884    3.7761    0.0000 C   0  0  0  0  0  0  0  0  0  0  0  0
    0.9767    2.9302    0.0000 C   0  0  0  0  0  0  0  0  0  0  0  0
   -0.8459    3.4186    0.0000 C   0  0  0  0  0  0  0  0  0  0  0  0
   -0.8459    1.4651    0.0000 C   0  0  0  0  0  0  0  0  0  0  0  0
   -0.8459    0.4884    0.0000 C   0  0  0  0  0  0  0  0  0  0  0  0
    2.5276   -0.1865    0.0000 C   0  0  0  0  0  0  0  0  0  0  0  0
    2.2258    0.7424    0.0000 C   0  0  0  0  0  0  0  0  0  0  0  0
    2.4289    1.6978    0.0000 F   0  0  0  0  0  0  0  0  0  0  0  0
    3.1547    1.0442    0.0000 F   0  0  0  0  0  0  0  0  0  0  0  0
    1.2704    0.9455    0.0000 F   0  0  0  0  0  0  0  0  0  0  0  0
  1  2  1  0  0  0  0
  2  3  1  0  0  0  0
  3 35  2  0  0  0  0
  3  4  1  0  0  0  0
  4  5  1  0  0  0  0
  5  6  1  0  0  0  0
  5 12  2  0  0  0  0
  6 11  2  0  0  0  0
  6  7  1  0  0  0  0
  7  8  2  0  0  0  0
  8  9  1  0  0  0  0
  9 10  2  0  0  0  0
 10 11  1  0  0  0  0
 12 13  1  0  0  0  0
 12 35  1  0  0  0  0
 13 14  2  0  0  0  0
 13 15  1  0  0  0  0
 13 25  1  0  0  0  0
 15 24  2  0  0  0  0
 15 16  1  0  0  0  0
 16 17  2  0  0  0  0
 17 18  1  0  0  0  0
 18 19  1  0  0  0  0
 18 23  2  0  0  0  0
 19 20  1  0  0  0  0
 19 21  1  0  0  0  0
 19 22  1  0  0  0  0
 23 24  1  0  0  0  0
 25 34  2  0  0  0  0
 25 26  1  0  0  0  0
 26 27  2  0  0  0  0
 27 28  1  0  0  0  0
 28 29  1  0  0  0  0
 28 33  2  0  0  0  0
 29 30  1  0  0  0  0
 29 31  1  0  0  0  0
 29 32  1  0  0  0  0
 33 34  1  0  0  0  0
 35 36  1  0  0  0  0
 36 37  1  0  0  0  0
 36 38  1  0  0  0  0
 36 39  1  0  0  0  0
M  END
> <NMREDATA_VERSION>
1.1

> <NMREDATA_LEVEL>
0

> <NMREDATA_SOLVENT>
CDCl3

> <NMREDATA_FORMULA>
C32H34F3O3P

> <NMREDATA_SMILES>
COc1oc(c(c1C(F)(F)F)P(=O)(c1ccc(cc1)C(C)(C)C)c1ccc(cc1)C(C)(C)C)c1ccccc1

> <NMREDATA_ASSIGNMENT>
P13, 18.92, 13

> <NMREDATA_1D_31P>
Larmor=162
18.92, L=P13

$$$$
