
 OpenBabel06112616452D

 50 57  0  0  1  0  0  0  0  0999 V2000
    9.0922   -3.5008    0.0000 C   0  0  0  0  0  0  0  0  0  0  0  0
    8.5873   -2.6263    0.0000 C   0  0  0  0  0  0  0  0  0  0  0  0
    9.0922   -1.7518    0.0000 C   0  0  0  0  0  0  0  0  0  0  0  0
    7.5775   -2.6263    0.0000 C   0  0  0  0  0  0  0  0  0  0  0  0
    7.0726   -1.7518    0.0000 C   0  0  0  0  0  0  0  0  0  0  0  0
    6.0628   -1.7518    0.0000 C   0  0  0  0  0  0  0  0  0  0  0  0
    5.5579   -2.6263    0.0000 C   0  0  1  0  0  0  0  0  0  0  0  0
    6.0628   -3.5008    0.0000 C   0  0  0  0  0  0  0  0  0  0  0  0
    4.5481   -2.6263    0.0000 C   0  0  1  0  0  0  0  0  0  0  0  0
    4.0427   -3.5005    0.0000 C   0  0  0  0  0  0  0  0  0  0  0  0
    3.0325   -3.5005    0.0000 C   0  0  0  0  0  0  0  0  0  0  0  0
    3.0325   -1.7509    0.0000 C   0  0  1  0  0  0  0  0  0  0  0  0
    2.5271   -0.8754    0.0000 C   0  0  2  0  0  0  0  0  0  0  0  0
    1.5163   -0.8754    0.0000 C   0  0  0  0  0  0  0  0  0  0  0  0
    1.0109    0.0000    0.0000 C   0  0  3  0  0  0  0  0  0  0  0  0
    0.0000    0.0000    0.0000 P   0  0  0  0  0  0  0  0  0  0  0  0
   -0.3124    0.9614    0.0000 O   0  0  0  0  0  0  0  0  0  0  0  0
   -0.9614   -0.3124    0.0000 C   0  0  0  0  0  0  0  0  0  0  0  0
   -1.1715   -1.3011    0.0000 C   0  0  0  0  0  0  0  0  0  0  0  0
   -2.1329   -1.6135    0.0000 C   0  0  0  0  0  0  0  0  0  0  0  0
   -2.8841   -0.9371    0.0000 C   0  0  0  0  0  0  0  0  0  0  0  0
   -3.8455   -1.2495    0.0000 C   0  0  0  0  0  0  0  0  0  0  0  0
   -4.5967   -0.5731    0.0000 C   0  0  0  0  0  0  0  0  0  0  0  0
   -4.3866    0.4157    0.0000 C   0  0  0  0  0  0  0  0  0  0  0  0
   -3.4252    0.7280    0.0000 C   0  0  0  0  0  0  0  0  0  0  0  0
   -2.6740    0.0517    0.0000 C   0  0  0  0  0  0  0  0  0  0  0  0
   -1.7126    0.3640    0.0000 C   0  0  0  0  0  0  0  0  0  0  0  0
    0.3124   -0.9614    0.0000 C   0  0  0  0  0  0  0  0  0  0  0  0
   -0.3640   -1.7126    0.0000 C   0  0  0  0  0  0  0  0  0  0  0  0
   -0.0517   -2.6740    0.0000 C   0  0  0  0  0  0  0  0  0  0  0  0
    0.9371   -2.8841    0.0000 C   0  0  0  0  0  0  0  0  0  0  0  0
    1.2495   -3.8455    0.0000 C   0  0  0  0  0  0  0  0  0  0  0  0
    2.0106   -3.7555    0.0000 C   0  0  0  0  0  0  0  0  0  0  0  0
    2.4147   -3.1043    0.0000 C   0  0  0  0  0  0  0  0  0  0  0  0
    2.1576   -2.3823    0.0000 C   0  0  0  0  0  0  0  0  0  0  0  0
    1.4328   -2.1332    0.0000 C   0  0  0  0  0  0  0  0  0  0  0  0
    1.1547   -1.2775    0.0000 C   0  0  0  0  0  0  0  0  0  0  0  0
    1.5163    0.8754    0.0000 C   0  0  3  0  0  0  0  0  0  0  0  0
    1.0109    1.7503    0.0000 C   0  0  0  0  0  0  0  0  0  0  0  0
    1.5163    2.6251    0.0000 C   0  0  3  0  0  0  0  0  0  0  0  0
    1.0163    3.4911    0.0000 O   0  0  0  0  0  0  0  0  0  0  0  0
    2.5271    2.6251    0.0000 C   0  0  0  0  0  0  0  0  0  0  0  0
    3.0325    1.7503    0.0000 C   0  0  0  0  0  0  0  0  0  0  0  0
    2.5271    0.8754    0.0000 C   0  0  1  0  0  0  0  0  0  0  0  0
    3.5271    0.8754    0.0000 C   0  0  0  0  0  0  0  0  0  0  0  0
    3.0325    0.0000    0.0000 C   0  0  1  0  0  0  0  0  0  0  0  0
    4.0427    0.0000    0.0000 C   0  0  0  0  0  0  0  0  0  0  0  0
    4.5481   -0.8754    0.0000 C   0  0  0  0  0  0  0  0  0  0  0  0
    4.0427   -1.7509    0.0000 C   0  0  2  0  0  0  0  0  0  0  0  0
    5.0427   -1.7509    0.0000 C   0  0  0  0  0  0  0  0  0  0  0  0
  1  2  1  0  0  0  0
  2  3  1  0  0  0  0
  2  4  1  0  0  0  0
  4  5  1  0  0  0  0
  5  6  1  0  0  0  0
  6  7  1  0  0  0  0
  7  8  1  1  0  0  0
  9  7  1  1  0  0  0
  9 10  1  0  0  0  0
  9 49  1  0  0  0  0
 10 11  1  0  0  0  0
 12 11  1  1  0  0  0
 12 13  1  0  0  0  0
 12 49  1  0  0  0  0
 13 14  1  6  0  0  0
 13 46  1  0  0  0  0
 14 15  1  0  0  0  0
 15 16  1  0  0  0  0
 15 38  1  0  0  0  0
 16 17  2  0  0  0  0
 16 18  1  0  0  0  0
 16 28  1  0  0  0  0
 18 27  2  0  0  0  0
 18 19  1  0  0  0  0
 19 20  2  0  0  0  0
 20 21  1  0  0  0  0
 21 26  2  0  0  0  0
 21 22  1  0  0  0  0
 22 23  2  0  0  0  0
 23 24  1  0  0  0  0
 24 25  2  0  0  0  0
 25 26  1  0  0  0  0
 26 27  1  0  0  0  0
 28 37  2  0  0  0  0
 28 29  1  0  0  0  0
 29 30  2  0  0  0  0
 30 31  1  0  0  0  0
 31 36  2  0  0  0  0
 31 32  1  0  0  0  0
 32 33  2  0  0  0  0
 33 34  1  0  0  0  0
 34 35  2  0  0  0  0
 35 36  1  0  0  0  0
 36 37  1  0  0  0  0
 38 44  1  0  0  0  0
 38 39  1  0  0  0  0
 39 40  1  0  0  0  0
 40 41  1  0  0  0  0
 40 42  1  0  0  0  0
 42 43  1  0  0  0  0
 43 44  1  0  0  0  0
 44 45  1  1  0  0  0
 44 46  1  0  0  0  0
 46 47  1  1  0  0  0
 47 48  1  0  0  0  0
 48 49  1  0  0  0  0
 49 50  1  1  0  0  0
M  END
> <NMREDATA_VERSION>
1.1

> <NMREDATA_LEVEL>
0

> <NMREDATA_SOLVENT>
CDCl3

> <NMREDATA_FORMULA>
C47H61O2P

> <NMREDATA_SMILES>
CC(CCC[C@H]([C@H]1CC[C@@H]2[C@]1(C)CC[C@H]1[C@H]2CC(C2[C@]1(C)CCC(C2)O)P(=O)(c1ccc2c(c1)cccc2)c1ccc2c(c1)cccc2)C)C

> <NMREDATA_ASSIGNMENT>
P16, 31.40, 16

> <NMREDATA_1D_31P>
Larmor=162
31.40, L=P16

$$$$
