
 OpenBabel06112616432D

 56 62  0  0  1  0  0  0  0  0999 V2000
    1.0364    3.1518    0.0000 C   0  0  0  0  0  0  0  0  0  0  0  0
    1.2520    2.2074    0.0000 C   0  0  0  0  0  0  0  0  0  0  0  0
    0.5418    1.5485    0.0000 N   0  0  0  0  0  0  0  0  0  0  0  0
   -0.3839    1.8340    0.0000 C   0  0  0  0  0  0  0  0  0  0  0  0
   -0.5994    2.7785    0.0000 C   0  0  0  0  0  0  0  0  0  0  0  0
   -1.5252    3.0640    0.0000 C   0  0  0  0  0  0  0  0  0  0  0  0
   -1.7407    4.0085    0.0000 C   0  0  0  0  0  0  0  0  0  0  0  0
   -1.0306    4.6674    0.0000 C   0  0  0  0  0  0  0  0  0  0  0  0
   -0.1049    4.3819    0.0000 C   0  0  0  0  0  0  0  0  0  0  0  0
    0.1107    3.4374    0.0000 C   0  0  0  0  0  0  0  0  0  0  0  0
    0.7574    0.6040    0.0000 P   0  0  3  0  0  0  0  0  0  0  0  0
    1.7019    0.3884    0.0000 O   0  0  0  0  0  0  0  0  0  0  0  0
    2.1222   -0.4844    0.0000 C   0  0  0  0  0  0  0  0  0  0  0  0
    3.8001   -1.4531    0.0000 C   0  0  0  0  0  0  0  0  0  0  0  0
    4.6391   -0.9688    0.0000 C   0  0  0  0  0  0  0  0  0  0  0  0
    5.4780   -1.4531    0.0000 C   0  0  0  0  0  0  0  0  0  0  0  0
    6.3170   -0.9688    0.0000 C   0  0  0  0  0  0  0  0  0  0  0  0
    5.4780   -2.4219    0.0000 C   0  0  0  0  0  0  0  0  0  0  0  0
    4.6391   -2.9063    0.0000 C   0  0  0  0  0  0  0  0  0  0  0  0
    4.6391   -3.8750    0.0000 C   0  0  0  0  0  0  0  0  0  0  0  0
    3.8001   -2.4219    0.0000 C   0  0  0  0  0  0  0  0  0  0  0  0
    2.9611    0.0000    0.0000 C   0  0  0  0  0  0  0  0  0  0  0  0
    2.9611    0.9687    0.0000 C   0  0  0  0  0  0  0  0  0  0  0  0
    3.8001    1.4531    0.0000 C   0  0  0  0  0  0  0  0  0  0  0  0
    3.8001    2.4219    0.0000 C   0  0  0  0  0  0  0  0  0  0  0  0
    4.6391    0.9687    0.0000 C   0  0  0  0  0  0  0  0  0  0  0  0
    4.6391    0.0000    0.0000 C   0  0  0  0  0  0  0  0  0  0  0  0
    5.4780   -0.4844    0.0000 C   0  0  0  0  0  0  0  0  0  0  0  0
    3.8001   -0.4844    0.0000 C   0  0  0  0  0  0  0  0  0  0  0  0
    1.7019   -1.3572    0.0000 C   0  0  1  0  0  0  0  0  0  0  0  0
    2.1987   -2.1888    0.0000 O   0  0  0  0  0  0  0  0  0  0  0  0
    1.5614   -2.9183    0.0000 C   0  0  0  0  0  0  0  0  0  0  0  0
    1.2758   -3.8441    0.0000 C   0  0  0  0  0  0  0  0  0  0  0  0
    0.3313   -4.0596    0.0000 C   0  0  0  0  0  0  0  0  0  0  0  0
    2.2203   -3.6285    0.0000 C   0  0  0  0  0  0  0  0  0  0  0  0
    1.9347   -4.5542    0.0000 C   0  0  0  0  0  0  0  0  0  0  0  0
    0.6706   -2.5376    0.0000 O   0  0  0  0  0  0  0  0  0  0  0  0
    0.7574   -1.5728    0.0000 C   0  0  2  0  0  0  0  0  0  0  0  0
    0.0000   -0.9687    0.0000 C   0  0  0  0  0  0  0  0  0  0  0  0
   -1.9321   -0.8240    0.0000 C   0  0  0  0  0  0  0  0  0  0  0  0
   -2.4778   -1.6244    0.0000 C   0  0  0  0  0  0  0  0  0  0  0  0
   -3.4438   -1.5520    0.0000 C   0  0  0  0  0  0  0  0  0  0  0  0
   -3.9896   -2.3524    0.0000 C   0  0  0  0  0  0  0  0  0  0  0  0
   -3.8642   -0.6792    0.0000 C   0  0  0  0  0  0  0  0  0  0  0  0
   -3.3184    0.1212    0.0000 C   0  0  0  0  0  0  0  0  0  0  0  0
   -3.7388    0.9941    0.0000 C   0  0  0  0  0  0  0  0  0  0  0  0
   -2.3524    0.0489    0.0000 C   0  0  0  0  0  0  0  0  0  0  0  0
   -0.5457   -1.7692    0.0000 C   0  0  0  0  0  0  0  0  0  0  0  0
   -0.1254   -2.6420    0.0000 C   0  0  0  0  0  0  0  0  0  0  0  0
   -0.6711   -3.4424    0.0000 C   0  0  0  0  0  0  0  0  0  0  0  0
   -0.2508   -4.3152    0.0000 C   0  0  0  0  0  0  0  0  0  0  0  0
   -1.6371   -3.3700    0.0000 C   0  0  0  0  0  0  0  0  0  0  0  0
   -2.0575   -2.4972    0.0000 C   0  0  0  0  0  0  0  0  0  0  0  0
   -3.0235   -2.4248    0.0000 C   0  0  0  0  0  0  0  0  0  0  0  0
   -1.5118   -1.6968    0.0000 C   0  0  0  0  0  0  0  0  0  0  0  0
    0.0000    0.0000    0.0000 O   0  0  0  0  0  0  0  0  0  0  0  0
  1  2  1  0  0  0  0
  2  3  1  0  0  0  0
  3  4  1  0  0  0  0
  3 11  1  0  0  0  0
  4  5  1  0  0  0  0
  5 10  2  0  0  0  0
  5  6  1  0  0  0  0
  6  7  2  0  0  0  0
  7  8  1  0  0  0  0
  8  9  2  0  0  0  0
  9 10  1  0  0  0  0
 11 56  1  0  0  0  0
 11 12  1  0  0  0  0
 12 13  1  0  0  0  0
 13 14  1  0  0  0  0
 13 22  1  0  0  0  0
 13 30  1  0  0  0  0
 14 21  2  0  0  0  0
 14 15  1  0  0  0  0
 15 16  2  0  0  0  0
 16 17  1  0  0  0  0
 16 18  1  0  0  0  0
 18 19  2  0  0  0  0
 19 20  1  0  0  0  0
 19 21  1  0  0  0  0
 22 29  2  0  0  0  0
 22 23  1  0  0  0  0
 23 24  2  0  0  0  0
 24 25  1  0  0  0  0
 24 26  1  0  0  0  0
 26 27  2  0  0  0  0
 27 28  1  0  0  0  0
 27 29  1  0  0  0  0
 30 31  1  1  0  0  0
 30 38  1  0  0  0  0
 31 32  1  0  0  0  0
 32 33  1  0  0  0  0
 32 35  1  0  0  0  0
 32 37  1  0  0  0  0
 33 34  1  0  0  0  0
 35 36  1  0  0  0  0
 38 37  1  6  0  0  0
 38 39  1  0  0  0  0
 39 40  1  0  0  0  0
 39 48  1  0  0  0  0
 39 56  1  0  0  0  0
 40 47  2  0  0  0  0
 40 41  1  0  0  0  0
 41 42  2  0  0  0  0
 42 43  1  0  0  0  0
 42 44  1  0  0  0  0
 44 45  2  0  0  0  0
 45 46  1  0  0  0  0
 45 47  1  0  0  0  0
 48 55  2  0  0  0  0
 48 49  1  0  0  0  0
 49 50  2  0  0  0  0
 50 51  1  0  0  0  0
 50 52  1  0  0  0  0
 52 53  2  0  0  0  0
 53 54  1  0  0  0  0
 53 55  1  0  0  0  0
M  END
> <NMREDATA_VERSION>
1.1

> <NMREDATA_LEVEL>
0

> <NMREDATA_SOLVENT>
CDCl3

> <NMREDATA_FORMULA>
C50H60NO4P

> <NMREDATA_SMILES>
CCN(P1OC(c2cc(C)cc(c2)C)(c2cc(C)cc(c2)C)[C@@H]2[C@@H](C(O1)(c1cc(C)cc(c1)C)c1cc(C)cc(c1)C)OC(O2)(CC)CC)Cc1ccccc1

> <NMREDATA_ASSIGNMENT>
P11, 138.70, 11

> <NMREDATA_1D_31P>
Larmor=202
138.70, L=P11

$$$$
