
 OpenBabel06112616422D

 15 14  0  0  0  0  0  0  0  0999 V2000
    3.0000   -2.7321    0.0000 S   0  0  2  0  0  0  0  0  0  0  0  0
    4.0000   -2.7321    0.0000 O   0  0  0  0  0  0  0  0  0  0  0  0
    2.5000   -1.8660    0.0000 N   0  0  0  0  0  0  0  0  0  0  0  0
    1.5000   -1.8660    0.0000 C   0  0  0  0  0  0  0  0  0  0  0  0
    1.0000   -1.0000    0.0000 C   0  0  0  0  0  0  0  0  0  0  0  0
    0.0000   -1.0000    0.0000 P   0  0  0  0  0  0  0  0  0  0  0  0
    0.0000   -2.0000    0.0000 O   0  0  0  0  0  0  0  0  0  0  0  0
   -1.0000   -1.0000    0.0000 O   0  0  0  0  0  0  0  0  0  0  0  0
   -1.5000   -0.1340    0.0000 C   0  0  0  0  0  0  0  0  0  0  0  0
    0.0000    0.0000    0.0000 O   0  0  0  0  0  0  0  0  0  0  0  0
   -0.8660    0.5000    0.0000 C   0  0  0  0  0  0  0  0  0  0  0  0
    2.5000   -3.5981    0.0000 C   0  0  0  0  0  0  0  0  0  0  0  0
    2.5000   -4.5981    0.0000 C   0  0  0  0  0  0  0  0  0  0  0  0
    3.3660   -4.0981    0.0000 C   0  0  0  0  0  0  0  0  0  0  0  0
    1.5000   -3.5981    0.0000 C   0  0  0  0  0  0  0  0  0  0  0  0
  1  2  2  1  0  0  0
  1  3  1  0  0  0  0
  1 12  1  0  0  0  0
  3  4  2  0  0  0  0
  4  5  1  0  0  0  0
  5  6  1  0  0  0  0
  6  7  2  0  0  0  0
  6  8  1  0  0  0  0
  6 10  1  0  0  0  0
  8  9  1  0  0  0  0
 10 11  1  0  0  0  0
 12 13  1  0  0  0  0
 12 14  1  0  0  0  0
 12 15  1  0  0  0  0
M  END
> <NMREDATA_VERSION>
1.1

> <NMREDATA_LEVEL>
0

> <NMREDATA_SOLVENT>
CDCl3

> <NMREDATA_FORMULA>
C8H18NO4PS

> <NMREDATA_SMILES>
COP(=O)(C/C=N/[S@@](=O)C(C)(C)C)OC

> <NMREDATA_ASSIGNMENT>
P6, 24.20, 6

> <NMREDATA_1D_31P>
Larmor=202
24.20, L=P6

$$$$
