
 OpenBabel06112616432D

 47 53  0  0  1  0  0  0  0  0999 V2000
    0.9208   -0.2840    0.0000 C   0  0  0  0  0  0  0  0  0  0  0  0
    1.6272    0.3714    0.0000 O   0  0  0  0  0  0  0  0  0  0  0  0
    1.4128    1.3109    0.0000 P   0  0  3  0  0  0  0  0  0  0  0  0
    0.4733    1.5253    0.0000 O   0  0  0  0  0  0  0  0  0  0  0  0
    0.0552    2.3935    0.0000 C   0  0  0  0  0  0  0  0  0  0  0  0
   -1.6139    3.3572    0.0000 C   0  0  0  0  0  0  0  0  0  0  0  0
   -2.4484    2.8753    0.0000 C   0  0  0  0  0  0  0  0  0  0  0  0
   -3.2829    3.3572    0.0000 C   0  0  0  0  0  0  0  0  0  0  0  0
   -3.2829    4.3208    0.0000 C   0  0  0  0  0  0  0  0  0  0  0  0
   -4.1175    4.8026    0.0000 C   0  0  0  0  0  0  0  0  0  0  0  0
   -2.4484    4.8026    0.0000 C   0  0  0  0  0  0  0  0  0  0  0  0
   -1.6139    4.3208    0.0000 C   0  0  0  0  0  0  0  0  0  0  0  0
   -0.7793    1.9117    0.0000 C   0  0  0  0  0  0  0  0  0  0  0  0
   -0.7793    0.9481    0.0000 C   0  0  0  0  0  0  0  0  0  0  0  0
   -1.6139    0.4662    0.0000 C   0  0  0  0  0  0  0  0  0  0  0  0
   -2.4484    0.9481    0.0000 C   0  0  0  0  0  0  0  0  0  0  0  0
   -3.2829    0.4662    0.0000 C   0  0  0  0  0  0  0  0  0  0  0  0
   -2.4484    1.9117    0.0000 C   0  0  0  0  0  0  0  0  0  0  0  0
   -1.6139    2.3935    0.0000 C   0  0  0  0  0  0  0  0  0  0  0  0
    0.4733    3.2617    0.0000 C   0  0  2  0  0  0  0  0  0  0  0  0
   -0.0209    4.0890    0.0000 O   0  0  0  0  0  0  0  0  0  0  0  0
    0.6131    4.8146    0.0000 C   0  0  0  0  0  0  0  0  0  0  0  0
    0.8971    5.7355    0.0000 C   0  0  0  0  0  0  0  0  0  0  0  0
   -0.0424    5.5210    0.0000 C   0  0  0  0  0  0  0  0  0  0  0  0
    1.4992    4.4359    0.0000 O   0  0  0  0  0  0  0  0  0  0  0  0
    1.4128    3.4761    0.0000 C   0  0  2  0  0  0  0  0  0  0  0  0
    2.1662    2.8753    0.0000 C   0  0  0  0  0  0  0  0  0  0  0  0
    4.0881    2.7313    0.0000 C   0  0  0  0  0  0  0  0  0  0  0  0
    4.6309    3.5275    0.0000 C   0  0  0  0  0  0  0  0  0  0  0  0
    5.5919    3.4555    0.0000 C   0  0  0  0  0  0  0  0  0  0  0  0
    6.0100    2.5873    0.0000 C   0  0  0  0  0  0  0  0  0  0  0  0
    6.9709    2.5153    0.0000 C   0  0  0  0  0  0  0  0  0  0  0  0
    5.4671    1.7911    0.0000 C   0  0  0  0  0  0  0  0  0  0  0  0
    4.5062    1.8631    0.0000 C   0  0  0  0  0  0  0  0  0  0  0  0
    2.7090    3.6715    0.0000 C   0  0  0  0  0  0  0  0  0  0  0  0
    2.2909    4.5397    0.0000 C   0  0  0  0  0  0  0  0  0  0  0  0
    2.8338    5.3359    0.0000 C   0  0  0  0  0  0  0  0  0  0  0  0
    3.7947    5.2639    0.0000 C   0  0  0  0  0  0  0  0  0  0  0  0
    4.3375    6.0601    0.0000 C   0  0  0  0  0  0  0  0  0  0  0  0
    4.2128    4.3957    0.0000 C   0  0  0  0  0  0  0  0  0  0  0  0
    3.6700    3.5995    0.0000 C   0  0  0  0  0  0  0  0  0  0  0  0
    2.1662    1.9117    0.0000 O   0  0  0  0  0  0  0  0  0  0  0  0
    1.1353   -1.2235    0.0000 C   0  0  0  0  0  0  0  0  0  0  0  0
    0.4289   -1.8790    0.0000 C   0  0  0  0  0  0  0  0  0  0  0  0
   -0.4920   -1.5949    0.0000 C   0  0  0  0  0  0  0  0  0  0  0  0
   -0.7064   -0.6554    0.0000 C   0  0  0  0  0  0  0  0  0  0  0  0
    0.0000    0.0000    0.0000 C   0  0  0  0  0  0  0  0  0  0  0  0
  1 47  2  0  0  0  0
  1  2  1  0  0  0  0
  1 43  1  0  0  0  0
  2  3  1  0  0  0  0
  3 42  1  0  0  0  0
  3  4  1  0  0  0  0
  4  5  1  0  0  0  0
  5  6  1  0  0  0  0
  5 13  1  0  0  0  0
  5 20  1  0  0  0  0
  6 12  2  0  0  0  0
  6  7  1  0  0  0  0
  7  8  2  0  0  0  0
  8  9  1  0  0  0  0
  9 10  1  0  0  0  0
  9 11  2  0  0  0  0
 11 12  1  0  0  0  0
 13 19  2  0  0  0  0
 13 14  1  0  0  0  0
 14 15  2  0  0  0  0
 15 16  1  0  0  0  0
 16 17  1  0  0  0  0
 16 18  2  0  0  0  0
 18 19  1  0  0  0  0
 20 21  1  6  0  0  0
 20 26  1  0  0  0  0
 21 22  1  0  0  0  0
 22 23  1  0  0  0  0
 22 24  1  0  0  0  0
 22 25  1  0  0  0  0
 26 25  1  6  0  0  0
 26 27  1  0  0  0  0
 27 28  1  0  0  0  0
 27 35  1  0  0  0  0
 27 42  1  0  0  0  0
 28 34  2  0  0  0  0
 28 29  1  0  0  0  0
 29 30  2  0  0  0  0
 30 31  1  0  0  0  0
 31 32  1  0  0  0  0
 31 33  2  0  0  0  0
 33 34  1  0  0  0  0
 35 41  2  0  0  0  0
 35 36  1  0  0  0  0
 36 37  2  0  0  0  0
 37 38  1  0  0  0  0
 38 39  1  0  0  0  0
 38 40  2  0  0  0  0
 40 41  1  0  0  0  0
 43 44  2  0  0  0  0
 44 45  1  0  0  0  0
 45 46  2  0  0  0  0
 46 47  1  0  0  0  0
M  END
> <NMREDATA_VERSION>
1.1

> <NMREDATA_LEVEL>
0

> <NMREDATA_SOLVENT>
CDCl3

> <NMREDATA_FORMULA>
C41H41O5P

> <NMREDATA_SMILES>
Cc1ccc(cc1)C1(OP(Oc2ccccc2)OC([C@@H]2[C@H]1OC(O2)(C)C)(c1ccc(cc1)C)c1ccc(cc1)C)c1ccc(cc1)C

> <NMREDATA_ASSIGNMENT>
P3, 123.80, 3

> <NMREDATA_1D_31P>
Larmor=162
123.80, L=P3

$$$$
