
 OpenBabel06112616442D

 36 41  0  0  0  0  0  0  0  0999 V2000
    1.0799   -1.1994    0.0000 P   0  0  0  0  0  0  0  0  0  0  0  0
    1.2737   -2.1109    0.0000 C   0  0  0  0  0  0  0  0  0  0  0  0
    0.6502   -2.8033    0.0000 N   0  0  0  0  0  0  0  0  0  0  0  0
    1.1161   -3.6103    0.0000 N   0  0  0  0  0  0  0  0  0  0  0  0
    2.0275   -3.4166    0.0000 C   0  0  0  0  0  0  0  0  0  0  0  0
    2.7200   -4.0401    0.0000 C   0  0  0  0  0  0  0  0  0  0  0  0
    2.5263   -4.9515    0.0000 O   0  0  0  0  0  0  0  0  0  0  0  0
    2.1249   -2.4899    0.0000 C   0  0  0  0  0  0  0  0  0  0  0  0
    5.3529   -0.6262    0.0000 C   0  0  0  0  0  0  0  0  0  0  0  0
    6.1598   -1.0921    0.0000 C   0  0  0  0  0  0  0  0  0  0  0  0
    6.1598   -2.0240    0.0000 C   0  0  0  0  0  0  0  0  0  0  0  0
    5.3529   -2.4899    0.0000 C   0  0  0  0  0  0  0  0  0  0  0  0
    5.3529   -3.4217    0.0000 C   0  0  0  0  0  0  0  0  0  0  0  0
    6.1598   -3.8876    0.0000 C   0  0  0  0  0  0  0  0  0  0  0  0
    6.9668   -3.4217    0.0000 C   0  0  0  0  0  0  0  0  0  0  0  0
    6.9668   -2.4899    0.0000 C   0  0  0  0  0  0  0  0  0  0  0  0
    6.9668   -0.6262    0.0000 C   0  0  0  0  0  0  0  0  0  0  0  0
    6.9668    0.3056    0.0000 C   0  0  0  0  0  0  0  0  0  0  0  0
    6.1598    0.7715    0.0000 C   0  0  0  0  0  0  0  0  0  0  0  0
    6.1598    1.7033    0.0000 C   0  0  0  0  0  0  0  0  0  0  0  0
    5.3529    2.1692    0.0000 C   0  0  0  0  0  0  0  0  0  0  0  0
    4.5459    1.7033    0.0000 C   0  0  0  0  0  0  0  0  0  0  0  0
    4.5459    0.7715    0.0000 C   0  0  0  0  0  0  0  0  0  0  0  0
    5.3529    0.3056    0.0000 C   0  0  0  0  0  0  0  0  0  0  0  0
    1.7724   -0.5759    0.0000 C   0  0  0  0  0  0  0  0  0  0  0  0
    1.5787    0.3356    0.0000 C   0  0  0  0  0  0  0  0  0  0  0  0
    2.2712    0.9591    0.0000 C   0  0  0  0  0  0  0  0  0  0  0  0
    3.1574    0.6711    0.0000 C   0  0  0  0  0  0  0  0  0  0  0  0
    3.3511   -0.2403    0.0000 C   0  0  0  0  0  0  0  0  0  0  0  0
    2.6586   -0.8638    0.0000 C   0  0  0  0  0  0  0  0  0  0  0  0
    0.1937   -0.9115    0.0000 C   0  0  0  0  0  0  0  0  0  0  0  0
   -0.4987   -1.5350    0.0000 C   0  0  0  0  0  0  0  0  0  0  0  0
   -1.3850   -1.2470    0.0000 C   0  0  0  0  0  0  0  0  0  0  0  0
   -1.5787   -0.3356    0.0000 C   0  0  0  0  0  0  0  0  0  0  0  0
   -0.8862    0.2879    0.0000 C   0  0  0  0  0  0  0  0  0  0  0  0
    0.0000    0.0000    0.0000 C   0  0  0  0  0  0  0  0  0  0  0  0
  1  2  1  0  0  0  0
  1 25  1  0  0  0  0
  1 31  1  0  0  0  0
  2  8  1  0  0  0  0
  2  3  2  0  0  0  0
  3  4  1  0  0  0  0
  4  5  1  0  0  0  0
  5  6  1  0  0  0  0
  5  8  2  0  0  0  0
  6  7  1  0  0  0  0
  8  9  1  0  0  0  0
  9 24  2  0  0  0  0
  9 10  1  0  0  0  0
 10 11  1  0  0  0  0
 10 17  2  0  0  0  0
 11 16  2  0  0  0  0
 11 12  1  0  0  0  0
 12 13  2  0  0  0  0
 13 14  1  0  0  0  0
 14 15  2  0  0  0  0
 15 16  1  0  0  0  0
 17 18  1  0  0  0  0
 18 19  2  0  0  0  0
 19 24  1  0  0  0  0
 19 20  1  0  0  0  0
 20 21  2  0  0  0  0
 21 22  1  0  0  0  0
 22 23  2  0  0  0  0
 23 24  1  0  0  0  0
 25 30  2  0  0  0  0
 25 26  1  0  0  0  0
 26 27  2  0  0  0  0
 27 28  1  0  0  0  0
 28 29  2  0  0  0  0
 29 30  1  0  0  0  0
 31 36  2  0  0  0  0
 31 32  1  0  0  0  0
 32 33  2  0  0  0  0
 33 34  1  0  0  0  0
 34 35  2  0  0  0  0
 35 36  1  0  0  0  0
M  END
> <NMREDATA_VERSION>
1.1

> <NMREDATA_LEVEL>
0

> <NMREDATA_SOLVENT>
CDCl3

> <NMREDATA_FORMULA>
C32H25N2OP

> <NMREDATA_SMILES>
OCc1[nH]nc(c1c1c(ccc2c1cccc2)c1ccccc1)P(c1ccccc1)c1ccccc1

> <NMREDATA_ASSIGNMENT>
P1, -36.80, 1

> <NMREDATA_1D_31P>
Larmor=162
-36.80, L=P1

$$$$
