
 OpenBabel06112616492D

 21 23  0  0  0  0  0  0  0  0999 V2000
   -0.1428    3.8226    0.0000 C   0  0  0  0  0  0  0  0  0  0  0  0
   -0.1428    2.8643    0.0000 C   0  0  0  0  0  0  0  0  0  0  0  0
    0.6871    2.3851    0.0000 C   0  0  0  0  0  0  0  0  0  0  0  0
    0.6871    1.4268    0.0000 C   0  0  0  0  0  0  0  0  0  0  0  0
   -0.1428    0.9476    0.0000 C   0  0  0  0  0  0  0  0  0  0  0  0
   -0.9728    1.4268    0.0000 C   0  0  0  0  0  0  0  0  0  0  0  0
   -0.9728    2.3851    0.0000 C   0  0  0  0  0  0  0  0  0  0  0  0
   -2.6327    3.3435    0.0000 C   0  0  0  0  0  0  0  0  0  0  0  0
   -1.8649    1.0767    0.0000 C   0  0  0  0  0  0  0  0  0  0  0  0
   -2.1473    0.1609    0.0000 C   0  0  0  0  0  0  0  0  0  0  0  0
   -3.0816   -0.0523    0.0000 C   0  0  0  0  0  0  0  0  0  0  0  0
   -3.7335    0.6502    0.0000 C   0  0  0  0  0  0  0  0  0  0  0  0
   -3.4510    1.5659    0.0000 C   0  0  0  0  0  0  0  0  0  0  0  0
   -4.1028    2.2684    0.0000 C   0  0  0  0  0  0  0  0  0  0  0  0
   -2.5167    1.7792    0.0000 C   0  0  0  0  0  0  0  0  0  0  0  0
   -2.2342    2.6949    0.0000 C   0  0  0  0  0  0  0  0  0  0  0  0
   -1.6075   -0.6309    0.0000 O   0  0  0  0  0  0  0  0  0  0  0  0
   -0.6518   -0.7025    0.0000 P   0  0  0  0  0  0  0  0  0  0  0  0
   -0.7947   -1.6501    0.0000 O   0  0  0  0  0  0  0  0  0  0  0  0
    0.0974   -1.3000    0.0000 O   0  0  0  0  0  0  0  0  0  0  0  0
    0.0000    0.0000    0.0000 O   0  0  0  0  0  0  0  0  0  0  0  0
  1  2  1  0  0  0  0
  2  7  2  0  0  0  0
  2  3  1  0  0  0  0
  3  4  2  0  0  0  0
  4  5  1  0  0  0  0
  5 21  1  0  0  0  0
  5  6  2  0  0  0  0
  6  7  1  0  0  0  0
  6  9  1  0  0  0  0
  7  8  1  0  0  0  0
  9 15  2  0  0  0  0
  9 10  1  0  0  0  0
 10 11  2  0  0  0  0
 10 17  1  0  0  0  0
 11 12  1  0  0  0  0
 12 13  2  0  0  0  0
 13 14  1  0  0  0  0
 13 15  1  0  0  0  0
 15 16  1  0  0  0  0
 17 18  1  0  0  0  0
 18 19  2  0  0  0  0
 18 20  1  0  0  0  0
 18 21  1  0  0  0  0
M  END
> <NMREDATA_VERSION>
1.1

> <NMREDATA_LEVEL>
0

> <NMREDATA_SOLVENT>
CDCl3

> <NMREDATA_FORMULA>
C16H17O4P

> <NMREDATA_SMILES>
Cc1ccc2c(-c3c(ccc(c3C)C)OP(=O)(O2)O)c1C

> <NMREDATA_ASSIGNMENT>
P18, -3.34, 18

> <NMREDATA_1D_31P>
Larmor=162
-3.34, L=P18

$$$$
