
 OpenBabel06112616432D

 42 48  0  0  0  0  0  0  0  0999 V2000
    6.3513   -1.5585    0.0000 C   0  0  0  0  0  0  0  0  0  0  0  0
    5.4743   -1.1680    0.0000 N   0  0  0  0  0  0  0  0  0  0  0  0
    4.6430   -1.6480    0.0000 C   0  0  0  0  0  0  0  0  0  0  0  0
    3.9295   -1.0056    0.0000 C   0  0  0  0  0  0  0  0  0  0  0  0
    3.0165   -1.3023    0.0000 C   0  0  0  0  0  0  0  0  0  0  0  0
    2.8169   -2.2413    0.0000 C   0  0  0  0  0  0  0  0  0  0  0  0
    3.5303   -2.8837    0.0000 C   0  0  0  0  0  0  0  0  0  0  0  0
    4.4434   -2.5870    0.0000 C   0  0  0  0  0  0  0  0  0  0  0  0
    4.3200   -0.1286    0.0000 C   0  0  0  0  0  0  0  0  0  0  0  0
    3.8400    0.7028    0.0000 C   0  0  0  0  0  0  0  0  0  0  0  0
    4.3200    1.5342    0.0000 C   0  0  0  0  0  0  0  0  0  0  0  0
    3.8400    2.3655    0.0000 C   0  0  0  0  0  0  0  0  0  0  0  0
    4.3200    3.1969    0.0000 C   0  0  0  0  0  0  0  0  0  0  0  0
    5.2800    3.1969    0.0000 C   0  0  0  0  0  0  0  0  0  0  0  0
    5.7600    2.3655    0.0000 C   0  0  0  0  0  0  0  0  0  0  0  0
    5.2800    1.5342    0.0000 C   0  0  0  0  0  0  0  0  0  0  0  0
    2.8800    2.3655    0.0000 O   0  0  0  0  0  0  0  0  0  0  0  0
    2.4000    1.5342    0.0000 C   0  0  0  0  0  0  0  0  0  0  0  0
    1.4400    1.5342    0.0000 O   0  0  0  0  0  0  0  0  0  0  0  0
    2.8800    0.7028    0.0000 C   0  0  0  0  0  0  0  0  0  0  0  0
    1.9200   -0.9600    0.0000 C   0  0  0  0  0  0  0  0  0  0  0  0
    0.0000   -0.9600    0.0000 P   0  3  0  0  0  0  0  0  0  0  0  0
    0.0000   -1.9200    0.0000 C   0  0  0  0  0  0  0  0  0  0  0  0
   -0.8314   -2.4000    0.0000 C   0  0  0  0  0  0  0  0  0  0  0  0
   -0.8314   -3.3600    0.0000 C   0  0  0  0  0  0  0  0  0  0  0  0
    0.0000   -3.8400    0.0000 C   0  0  0  0  0  0  0  0  0  0  0  0
    0.8314   -3.3600    0.0000 C   0  0  0  0  0  0  0  0  0  0  0  0
    0.8314   -2.4000    0.0000 C   0  0  0  0  0  0  0  0  0  0  0  0
   -0.9600   -0.9600    0.0000 C   0  0  0  0  0  0  0  0  0  0  0  0
   -1.4400   -0.1286    0.0000 C   0  0  0  0  0  0  0  0  0  0  0  0
   -2.4000   -0.1286    0.0000 C   0  0  0  0  0  0  0  0  0  0  0  0
   -2.8800   -0.9600    0.0000 C   0  0  0  0  0  0  0  0  0  0  0  0
   -2.4000   -1.7914    0.0000 C   0  0  0  0  0  0  0  0  0  0  0  0
   -1.4400   -1.7914    0.0000 C   0  0  0  0  0  0  0  0  0  0  0  0
    0.0000    0.0000    0.0000 C   0  0  0  0  0  0  0  0  0  0  0  0
    0.8314    0.4800    0.0000 C   0  0  0  0  0  0  0  0  0  0  0  0
    0.8314    1.4400    0.0000 C   0  0  0  0  0  0  0  0  0  0  0  0
    0.0000    1.9200    0.0000 C   0  0  0  0  0  0  0  0  0  0  0  0
   -0.8314    1.4400    0.0000 C   0  0  0  0  0  0  0  0  0  0  0  0
   -0.8314    0.4800    0.0000 C   0  0  0  0  0  0  0  0  0  0  0  0
    5.2747   -0.2290    0.0000 C   0  0  0  0  0  0  0  0  0  0  0  0
    5.9171    0.4845    0.0000 O   0  5  0  0  0  0  0  0  0  0  0  0
  1  2  1  0  0  0  0
  2 41  1  0  0  0  0
  2  3  1  0  0  0  0
  3  8  2  0  0  0  0
  3  4  1  0  0  0  0
  4  5  2  0  0  0  0
  4  9  1  0  0  0  0
  5  6  1  0  0  0  0
  6  7  2  0  0  0  0
  7  8  1  0  0  0  0
  9 10  1  0  0  0  0
  9 41  2  0  0  0  0
 10 20  2  0  0  0  0
 10 11  1  0  0  0  0
 11 16  2  0  0  0  0
 11 12  1  0  0  0  0
 12 13  2  0  0  0  0
 12 17  1  0  0  0  0
 13 14  1  0  0  0  0
 14 15  2  0  0  0  0
 15 16  1  0  0  0  0
 17 18  1  0  0  0  0
 18 19  2  0  0  0  0
 18 20  1  0  0  0  0
 20 21  1  0  0  0  0
 21 22  1  0  0  0  0
 22 23  1  0  0  0  0
 22 29  1  0  0  0  0
 22 35  1  0  0  0  0
 23 28  2  0  0  0  0
 23 24  1  0  0  0  0
 24 25  2  0  0  0  0
 25 26  1  0  0  0  0
 26 27  2  0  0  0  0
 27 28  1  0  0  0  0
 29 34  2  0  0  0  0
 29 30  1  0  0  0  0
 30 31  2  0  0  0  0
 31 32  1  0  0  0  0
 32 33  2  0  0  0  0
 33 34  1  0  0  0  0
 35 40  2  0  0  0  0
 35 36  1  0  0  0  0
 36 37  2  0  0  0  0
 37 38  1  0  0  0  0
 38 39  2  0  0  0  0
 39 40  1  0  0  0  0
 41 42  1  0  0  0  0
M  END
> <NMREDATA_VERSION>
1.1

> <NMREDATA_LEVEL>
0

> <NMREDATA_SOLVENT>
CDCl3

> <NMREDATA_FORMULA>
C37H28NO3P

> <NMREDATA_SMILES>
O=c1oc2ccccc2c(c1C[P+](c1ccccc1)(c1ccccc1)c1ccccc1)c1c2ccccc2n(c1[O-])C

> <NMREDATA_ASSIGNMENT>
P22, 22.42, 22

> <NMREDATA_1D_31P>
Larmor=162
22.42, L=P22

$$$$
