
 OpenBabel06112616462D

 23 24  0  0  0  0  0  0  0  0999 V2000
   -1.4400    1.5342    0.0000 C   0  0  0  0  0  0  0  0  0  0  0  0
   -1.9200    0.7028    0.0000 C   0  0  0  0  0  0  0  0  0  0  0  0
   -2.8800    0.7028    0.0000 O   0  0  0  0  0  0  0  0  0  0  0  0
   -0.9600   -0.9600    0.0000 C   0  0  0  0  0  0  0  0  0  0  0  0
   -1.4400   -1.7914    0.0000 C   0  0  0  0  0  0  0  0  0  0  0  0
   -2.4000   -1.7914    0.0000 S   0  0  0  0  0  0  0  0  0  0  0  0
   -2.8800   -0.9600    0.0000 C   0  0  0  0  0  0  0  0  0  0  0  0
   -0.9600   -2.6228    0.0000 S   0  0  0  0  0  0  0  0  0  0  0  0
   -1.4400   -3.4542    0.0000 C   0  0  0  0  0  0  0  0  0  0  0  0
    0.0000   -0.9600    0.0000 P   0  0  0  0  0  0  0  0  0  0  0  0
    0.0000   -1.9200    0.0000 O   0  0  0  0  0  0  0  0  0  0  0  0
    0.9600   -0.9600    0.0000 C   0  0  0  0  0  0  0  0  0  0  0  0
    1.4400   -0.1286    0.0000 C   0  0  0  0  0  0  0  0  0  0  0  0
    2.4000   -0.1286    0.0000 C   0  0  0  0  0  0  0  0  0  0  0  0
    2.8800   -0.9600    0.0000 C   0  0  0  0  0  0  0  0  0  0  0  0
    2.4000   -1.7914    0.0000 C   0  0  0  0  0  0  0  0  0  0  0  0
    1.4400   -1.7914    0.0000 C   0  0  0  0  0  0  0  0  0  0  0  0
    0.0000    0.0000    0.0000 C   0  0  0  0  0  0  0  0  0  0  0  0
   -0.8314    0.4800    0.0000 C   0  0  0  0  0  0  0  0  0  0  0  0
   -0.8314    1.4400    0.0000 C   0  0  0  0  0  0  0  0  0  0  0  0
    0.0000    1.9200    0.0000 C   0  0  0  0  0  0  0  0  0  0  0  0
    0.8314    1.4400    0.0000 C   0  0  0  0  0  0  0  0  0  0  0  0
    0.8314    0.4800    0.0000 C   0  0  0  0  0  0  0  0  0  0  0  0
  1  2  1  0  0  0  0
  2  3  2  0  0  0  0
  2  4  1  0  0  0  0
  4  5  2  0  0  0  0
  4 10  1  0  0  0  0
  5  6  1  0  0  0  0
  5  8  1  0  0  0  0
  6  7  1  0  0  0  0
  8  9  1  0  0  0  0
 10 11  2  0  0  0  0
 10 12  1  0  0  0  0
 10 18  1  0  0  0  0
 12 17  2  0  0  0  0
 12 13  1  0  0  0  0
 13 14  2  0  0  0  0
 14 15  1  0  0  0  0
 15 16  2  0  0  0  0
 16 17  1  0  0  0  0
 18 23  2  0  0  0  0
 18 19  1  0  0  0  0
 19 20  2  0  0  0  0
 20 21  1  0  0  0  0
 21 22  2  0  0  0  0
 22 23  1  0  0  0  0
M  END
> <NMREDATA_VERSION>
1.1

> <NMREDATA_LEVEL>
0

> <NMREDATA_SOLVENT>
CDCl3

> <NMREDATA_FORMULA>
C18H19O2PS2

> <NMREDATA_SMILES>
CSC(=C(P(=O)(c1ccccc1)c1ccccc1)C(=O)C)SC

> <NMREDATA_ASSIGNMENT>
P10, 19.40, 10

> <NMREDATA_1D_31P>
Larmor=120
19.40, L=P10

$$$$
