
 OpenBabel06112616482D

 29 33  0  0  0  0  0  0  0  0999 V2000
    0.8660    1.5000    0.0000 P   0  0  0  0  0  0  0  0  0  0  0  0
    1.7321    2.0000    0.0000 C   0  0  0  0  0  0  0  0  0  0  0  0
    1.8366    2.9945    0.0000 C   0  0  0  0  0  0  0  0  0  0  0  0
    1.0934    3.6637    0.0000 C   0  0  0  0  0  0  0  0  0  0  0  0
    0.1424    3.3546    0.0000 C   0  0  0  0  0  0  0  0  0  0  0  0
   -0.6008    4.0238    0.0000 C   0  0  0  0  0  0  0  0  0  0  0  0
   -0.3929    5.0019    0.0000 C   0  0  0  0  0  0  0  0  0  0  0  0
    0.5582    5.3109    0.0000 C   0  0  0  0  0  0  0  0  0  0  0  0
    1.3013    4.6418    0.0000 C   0  0  0  0  0  0  0  0  0  0  0  0
    2.8147    3.2024    0.0000 N   0  0  0  0  0  0  0  0  0  0  0  0
    3.2215    4.1160    0.0000 C   0  0  0  0  0  0  0  0  0  0  0  0
    3.3147    2.3364    0.0000 C   0  0  0  0  0  0  0  0  0  0  0  0
    4.2929    2.1285    0.0000 C   0  0  0  0  0  0  0  0  0  0  0  0
    4.6019    1.1774    0.0000 C   0  0  0  0  0  0  0  0  0  0  0  0
    3.9328    0.4343    0.0000 C   0  0  0  0  0  0  0  0  0  0  0  0
    2.9546    0.6422    0.0000 C   0  0  0  0  0  0  0  0  0  0  0  0
    2.6456    1.5933    0.0000 C   0  0  0  0  0  0  0  0  0  0  0  0
    0.0000    2.0000    0.0000 C   0  0  0  0  0  0  0  0  0  0  0  0
   -0.8660    1.5000    0.0000 C   0  0  0  0  0  0  0  0  0  0  0  0
   -1.7321    2.0000    0.0000 C   0  0  0  0  0  0  0  0  0  0  0  0
   -1.7321    3.0000    0.0000 C   0  0  0  0  0  0  0  0  0  0  0  0
   -0.8660    3.5000    0.0000 C   0  0  0  0  0  0  0  0  0  0  0  0
    0.0000    3.0000    0.0000 C   0  0  0  0  0  0  0  0  0  0  0  0
    0.8660    0.5000    0.0000 C   0  0  0  0  0  0  0  0  0  0  0  0
    1.7321    0.0000    0.0000 C   0  0  0  0  0  0  0  0  0  0  0  0
    1.7321   -1.0000    0.0000 C   0  0  0  0  0  0  0  0  0  0  0  0
    0.8660   -1.5000    0.0000 C   0  0  0  0  0  0  0  0  0  0  0  0
    0.0000   -1.0000    0.0000 C   0  0  0  0  0  0  0  0  0  0  0  0
    0.0000    0.0000    0.0000 C   0  0  0  0  0  0  0  0  0  0  0  0
  1  2  1  0  0  0  0
  1 18  1  0  0  0  0
  1 24  1  0  0  0  0
  2 17  1  0  0  0  0
  2  3  2  0  0  0  0
  3  4  1  0  0  0  0
  3 10  1  0  0  0  0
  4  9  1  0  0  0  0
  4  5  1  0  0  0  0
  5  6  1  0  0  0  0
  6  7  1  0  0  0  0
  7  8  1  0  0  0  0
  8  9  1  0  0  0  0
 10 11  1  0  0  0  0
 10 12  1  0  0  0  0
 12 17  2  0  0  0  0
 12 13  1  0  0  0  0
 13 14  2  0  0  0  0
 14 15  1  0  0  0  0
 15 16  2  0  0  0  0
 16 17  1  0  0  0  0
 18 23  2  0  0  0  0
 18 19  1  0  0  0  0
 19 20  2  0  0  0  0
 20 21  1  0  0  0  0
 21 22  2  0  0  0  0
 22 23  1  0  0  0  0
 24 29  2  0  0  0  0
 24 25  1  0  0  0  0
 25 26  2  0  0  0  0
 26 27  1  0  0  0  0
 27 28  2  0  0  0  0
 28 29  1  0  0  0  0
M  END
> <NMREDATA_VERSION>
1.1

> <NMREDATA_LEVEL>
0

> <NMREDATA_SOLVENT>
C6D6

> <NMREDATA_FORMULA>
C27H28NP

> <NMREDATA_SMILES>
Cn1c(C2CCCCC2)c(c2c1cccc2)P(c1ccccc1)c1ccccc1

> <NMREDATA_ASSIGNMENT>
P1, -30.70, 1

> <NMREDATA_1D_31P>
Larmor=162
-30.70, L=P1

$$$$
