
 OpenBabel06112616432D

 14 15  0  0  0  0  0  0  0  0999 V2000
   -1.0000   -3.0567    0.0000 C   0  0  0  0  0  0  0  0  0  0  0  0
    0.0000   -3.0567    0.0000 C   0  0  0  0  0  0  0  0  0  0  0  0
    0.5000   -2.1906    0.0000 P   0  0  3  0  0  0  0  0  0  0  0  0
    1.0000   -3.0567    0.0000 O   0  0  0  0  0  0  0  0  0  0  0  0
    1.4010   -1.7568    0.0000 O   0  0  0  0  0  0  0  0  0  0  0  0
    1.6235   -0.7818    0.0000 C   0  0  0  0  0  0  0  0  0  0  0  0
    2.5984   -0.5593    0.0000 C   0  0  0  0  0  0  0  0  0  0  0  0
    1.0000    0.0000    0.0000 C   0  0  0  0  0  0  0  0  0  0  0  0
    0.0000    0.0000    0.0000 C   0  0  0  0  0  0  0  0  0  0  0  0
   -0.6235   -0.7818    0.0000 C   0  0  0  0  0  0  0  0  0  0  0  0
   -1.5984   -0.5593    0.0000 C   0  0  0  0  0  0  0  0  0  0  0  0
   -0.4010   -1.7568    0.0000 O   0  0  0  0  0  0  0  0  0  0  0  0
    0.0000    1.0000    0.0000 C   0  0  0  0  0  0  0  0  0  0  0  0
    1.0000    1.0000    0.0000 C   0  0  0  0  0  0  0  0  0  0  0  0
  1  2  1  0  0  0  0
  2  3  1  0  0  0  0
  3 12  1  0  0  0  0
  3  4  2  0  0  0  0
  3  5  1  0  0  0  0
  5  6  1  0  0  0  0
  6  7  1  0  0  0  0
  6  8  2  0  0  0  0
  8 14  1  0  0  0  0
  8  9  1  0  0  0  0
  9 10  2  0  0  0  0
  9 13  1  0  0  0  0
 10 11  1  0  0  0  0
 10 12  1  0  0  0  0
 13 14  1  0  0  0  0
M  END
> <NMREDATA_VERSION>
1.1

> <NMREDATA_LEVEL>
0

> <NMREDATA_SOLVENT>
CDCl3

> <NMREDATA_FORMULA>
C10H15O3P

> <NMREDATA_SMILES>
CCP1(=O)OC(=C2C(=C(O1)C)CC2)C

> <NMREDATA_ASSIGNMENT>
P3, 22.88, 3

> <NMREDATA_1D_31P>
Larmor=202
22.88, L=P3

$$$$
