
 OpenBabel06112616442D

 28 30  0  0  0  0  0  0  0  0999 V2000
    2.7321    3.0000    0.0000 O    0  0  0  0  0  0  0  0  0  0  0  0
    1.8660    2.5000    0.0000 C    0  0  0  0  0  0  0  0  0  0  0  0
    1.8660    1.5000    0.0000 C    0  0  0  0  0  0  0  0  0  0  0  0
    2.7321    1.0000    0.0000 N    0  0  0  0  0  0  0  0  0  0  0  0
    3.5981    1.5000    0.0000 C    0  0  0  0  0  0  0  0  0  0  0  0
    4.4641    1.0000    0.0000 C    0  0  0  0  0  0  0  0  0  0  0  0
    5.3301    1.5000    0.0000 C    0  0  0  0  0  0  0  0  0  0  0  0
    5.3301    2.5000    0.0000 C    0  0  0  0  0  0  0  0  0  0  0  0
    6.1962    3.0000    0.0000 Br   0  0  0  0  0  0  0  0  0  0  0  0
    4.4641    3.0000    0.0000 C    0  0  0  0  0  0  0  0  0  0  0  0
    3.5981    2.5000    0.0000 C    0  0  0  0  0  0  0  0  0  0  0  0
    1.0000    1.0000    0.0000 C    0  0  0  0  0  0  0  0  0  0  0  0
    1.0000    0.0000    0.0000 P    0  0  0  0  0  0  0  0  0  0  0  0
    2.0000    0.0000    0.0000 O    0  0  0  0  0  0  0  0  0  0  0  0
    1.0000   -1.0000    0.0000 O    0  0  0  0  0  0  0  0  0  0  0  0
    1.8660   -1.5000    0.0000 C    0  0  0  0  0  0  0  0  0  0  0  0
    2.7321   -1.0000    0.0000 C    0  0  0  0  0  0  0  0  0  0  0  0
    0.0000    0.0000    0.0000 O    0  0  0  0  0  0  0  0  0  0  0  0
   -0.5000   -0.8660    0.0000 C    0  0  0  0  0  0  0  0  0  0  0  0
   -1.5000   -0.8660    0.0000 C    0  0  0  0  0  0  0  0  0  0  0  0
    0.1340    1.5000    0.0000 C    0  0  0  0  0  0  0  0  0  0  0  0
   -0.7321    1.0000    0.0000 O    0  0  0  0  0  0  0  0  0  0  0  0
    0.1340    2.5000    0.0000 C    0  0  0  0  0  0  0  0  0  0  0  0
   -0.7321    3.0000    0.0000 C    0  0  0  0  0  0  0  0  0  0  0  0
   -0.7321    4.0000    0.0000 C    0  0  0  0  0  0  0  0  0  0  0  0
    0.1340    4.5000    0.0000 C    0  0  0  0  0  0  0  0  0  0  0  0
    1.0000    4.0000    0.0000 C    0  0  0  0  0  0  0  0  0  0  0  0
    1.0000    3.0000    0.0000 C    0  0  0  0  0  0  0  0  0  0  0  0
  1  2  2  0  0  0  0
  2 28  1  0  0  0  0
  2  3  1  0  0  0  0
  3  4  1  0  0  0  0
  3 12  2  0  0  0  0
  4  5  1  0  0  0  0
  5 11  2  0  0  0  0
  5  6  1  0  0  0  0
  6  7  2  0  0  0  0
  7  8  1  0  0  0  0
  8  9  1  0  0  0  0
  8 10  2  0  0  0  0
 10 11  1  0  0  0  0
 12 13  1  0  0  0  0
 12 21  1  0  0  0  0
 13 14  2  0  0  0  0
 13 15  1  0  0  0  0
 13 18  1  0  0  0  0
 15 16  1  0  0  0  0
 16 17  1  0  0  0  0
 18 19  1  0  0  0  0
 19 20  1  0  0  0  0
 21 22  2  0  0  0  0
 21 23  1  0  0  0  0
 23 28  2  0  0  0  0
 23 24  1  0  0  0  0
 24 25  2  0  0  0  0
 25 26  1  0  0  0  0
 26 27  2  0  0  0  0
 27 28  1  0  0  0  0
M  END
> <NMREDATA_VERSION>
1.1

> <NMREDATA_LEVEL>
0

> <NMREDATA_SOLVENT>
CDCl3

> <NMREDATA_FORMULA>
C20H19BrNO5P

> <NMREDATA_SMILES>
CCOP(=O)(C1=C(Nc2ccc(cc2)Br)C(=O)c2c(C1=O)cccc2)OCC

> <NMREDATA_ASSIGNMENT>
P13, 20.00, 13

> <NMREDATA_1D_31P>
Larmor=243
20.00, L=P13

$$$$
