
 OpenBabel06112616452D

 26 27  0  0  0  0  0  0  0  0999 V2000
    1.9013    3.3637    0.0000 C   0  0  0  0  0  0  0  0  0  0  0  0
    1.1942    4.0708    0.0000 C   0  0  0  0  0  0  0  0  0  0  0  0
    0.2283    3.8120    0.0000 O   0  0  0  0  0  0  0  0  0  0  0  0
   -0.0306    2.8461    0.0000 C   0  0  0  0  0  0  0  0  0  0  0  0
   -0.9965    2.5872    0.0000 O   0  0  0  0  0  0  0  0  0  0  0  0
    0.6766    2.1390    0.0000 C   0  0  0  0  0  0  0  0  0  0  0  0
    0.4177    1.1730    0.0000 C   0  0  0  0  0  0  0  0  0  0  0  0
   -0.5482    0.9142    0.0000 C   0  0  0  0  0  0  0  0  0  0  0  0
   -1.2553    1.6213    0.0000 S   0  0  0  0  0  0  0  0  0  0  0  0
   -2.2212    1.3625    0.0000 S   0  0  0  0  0  0  0  0  0  0  0  0
   -2.9283    2.0696    0.0000 C   0  0  0  0  0  0  0  0  0  0  0  0
   -3.8943    1.8108    0.0000 C   0  0  0  0  0  0  0  0  0  0  0  0
   -4.6714    2.4401    0.0000 C   0  0  0  0  0  0  0  0  0  0  0  0
   -5.5101    1.8955    0.0000 C   0  0  0  0  0  0  0  0  0  0  0  0
   -5.2513    0.9295    0.0000 C   0  0  0  0  0  0  0  0  0  0  0  0
   -4.2526    0.8772    0.0000 O   0  0  0  0  0  0  0  0  0  0  0  0
    1.1248    0.4659    0.0000 O   0  0  0  0  0  0  0  0  0  0  0  0
    0.8660   -0.5000    0.0000 P   0  0  0  0  0  0  0  0  0  0  0  0
    1.6594   -1.1088    0.0000 S   0  0  0  0  0  0  0  0  0  0  0  0
    0.8660   -1.5000    0.0000 O   0  0  0  0  0  0  0  0  0  0  0  0
    0.0000   -2.0000    0.0000 C   0  0  0  0  0  0  0  0  0  0  0  0
   -0.8660   -1.5000    0.0000 C   0  0  0  0  0  0  0  0  0  0  0  0
   -1.8660   -1.5000    0.0000 C   0  0  0  0  0  0  0  0  0  0  0  0
   -1.3660   -2.3660    0.0000 C   0  0  0  0  0  0  0  0  0  0  0  0
   -0.8660   -0.5000    0.0000 C   0  0  0  0  0  0  0  0  0  0  0  0
    0.0000    0.0000    0.0000 O   0  0  0  0  0  0  0  0  0  0  0  0
  1  2  1  0  0  0  0
  2  3  1  0  0  0  0
  3  4  1  0  0  0  0
  4  5  2  0  0  0  0
  4  6  1  0  0  0  0
  6  7  1  0  0  0  0
  7  8  2  0  0  0  0
  7 17  1  0  0  0  0
  8  9  1  0  0  0  0
  9 10  1  0  0  0  0
 10 11  1  0  0  0  0
 11 12  1  0  0  0  0
 12 16  1  0  0  0  0
 12 13  2  0  0  0  0
 13 14  1  0  0  0  0
 14 15  2  0  0  0  0
 15 16  1  0  0  0  0
 17 18  1  0  0  0  0
 18 26  1  0  0  0  0
 18 19  2  0  0  0  0
 18 20  1  0  0  0  0
 20 21  1  0  0  0  0
 21 22  1  0  0  0  0
 22 23  1  0  0  0  0
 22 24  1  0  0  0  0
 22 25  1  0  0  0  0
 25 26  1  0  0  0  0
M  END
> <NMREDATA_VERSION>
1.1

> <NMREDATA_LEVEL>
0

> <NMREDATA_SOLVENT>
CDCl3

> <NMREDATA_FORMULA>
C16H23O6PS3

> <NMREDATA_SMILES>
CCOC(=O)C/C(=C\SSCc1ccco1)/OP1(=S)OCC(CO1)(C)C

> <NMREDATA_ASSIGNMENT>
P18, 49.72, 18

> <NMREDATA_1D_31P>
Larmor=162
49.72, L=P18

$$$$
