
 OpenBabel06112616482D

 30 33  0  0  1  0  0  0  0  0999 V2000
    1.6569   -1.6569    0.0000 C   0  0  0  0  0  0  0  0  0  0  0  0
    2.6275   -1.6569    0.0000 C   0  0  0  0  0  0  0  0  0  0  0  0
    3.1128   -0.8163    0.0000 C   0  0  0  0  0  0  0  0  0  0  0  0
    4.0834   -0.8163    0.0000 C   0  0  0  0  0  0  0  0  0  0  0  0
    4.5687   -1.6569    0.0000 C   0  0  0  0  0  0  0  0  0  0  0  0
    4.0834   -2.4975    0.0000 C   0  0  0  0  0  0  0  0  0  0  0  0
    3.1128   -2.4975    0.0000 C   0  0  0  0  0  0  0  0  0  0  0  0
    0.9706   -2.3432    0.0000 C   0  0  0  0  0  0  0  0  0  0  0  0
    0.2843   -1.6569    0.0000 C   0  0  1  0  0  0  0  0  0  0  0  0
   -1.6569   -1.6569    0.0000 C   0  0  0  0  0  0  0  0  0  0  0  0
   -2.1422   -0.8163    0.0000 O   0  0  0  0  0  0  0  0  0  0  0  0
   -2.1422   -2.4975    0.0000 O   0  0  0  0  0  0  0  0  0  0  0  0
   -3.1128   -2.4975    0.0000 C   0  0  0  0  0  0  0  0  0  0  0  0
   -3.5981   -1.6569    0.0000 C   0  0  0  0  0  0  0  0  0  0  0  0
   -3.5981   -3.3380    0.0000 C   0  0  0  0  0  0  0  0  0  0  0  0
    0.9706   -0.9706    0.0000 C   0  0  2  0  0  0  0  0  0  0  0  0
    0.9706    0.0000    0.0000 P   0  0  0  0  0  0  0  0  0  0  0  0
    1.9412    0.0000    0.0000 O   0  0  0  0  0  0  0  0  0  0  0  0
    0.9706    0.9706    0.0000 C   0  0  0  0  0  0  0  0  0  0  0  0
    0.1300    1.4559    0.0000 C   0  0  0  0  0  0  0  0  0  0  0  0
    0.1300    2.4265    0.0000 C   0  0  0  0  0  0  0  0  0  0  0  0
    0.9706    2.9118    0.0000 C   0  0  0  0  0  0  0  0  0  0  0  0
    1.8111    2.4265    0.0000 C   0  0  0  0  0  0  0  0  0  0  0  0
    1.8111    1.4559    0.0000 C   0  0  0  0  0  0  0  0  0  0  0  0
    0.0000    0.0000    0.0000 C   0  0  0  0  0  0  0  0  0  0  0  0
   -0.4853   -0.8406    0.0000 C   0  0  0  0  0  0  0  0  0  0  0  0
   -1.4559   -0.8406    0.0000 C   0  0  0  0  0  0  0  0  0  0  0  0
   -1.9412    0.0000    0.0000 C   0  0  0  0  0  0  0  0  0  0  0  0
   -1.4559    0.8406    0.0000 C   0  0  0  0  0  0  0  0  0  0  0  0
   -0.4853    0.8406    0.0000 C   0  0  0  0  0  0  0  0  0  0  0  0
  1 16  1  0  0  0  0
  1  2  1  0  0  0  0
  1  8  2  0  0  0  0
  2  7  2  0  0  0  0
  2  3  1  0  0  0  0
  3  4  2  0  0  0  0
  4  5  1  0  0  0  0
  5  6  2  0  0  0  0
  6  7  1  0  0  0  0
  8  9  1  0  0  0  0
  9 10  1  1  0  0  0
  9 16  1  0  0  0  0
 10 11  2  0  0  0  0
 10 12  1  0  0  0  0
 12 13  1  0  0  0  0
 13 14  1  0  0  0  0
 13 15  1  0  0  0  0
 16 17  1  6  0  0  0
 17 18  2  0  0  0  0
 17 19  1  0  0  0  0
 17 25  1  0  0  0  0
 19 24  2  0  0  0  0
 19 20  1  0  0  0  0
 20 21  2  0  0  0  0
 21 22  1  0  0  0  0
 22 23  2  0  0  0  0
 23 24  1  0  0  0  0
 25 30  2  0  0  0  0
 25 26  1  0  0  0  0
 26 27  2  0  0  0  0
 27 28  1  0  0  0  0
 28 29  2  0  0  0  0
 29 30  1  0  0  0  0
M  END
> <NMREDATA_VERSION>
1.1

> <NMREDATA_LEVEL>
0

> <NMREDATA_SOLVENT>
CDCl3

> <NMREDATA_FORMULA>
C26H25O3P

> <NMREDATA_SMILES>
CC(OC(=O)[C@@H]1C=C([C@H]1P(=O)(c1ccccc1)c1ccccc1)c1ccccc1)C

> <NMREDATA_ASSIGNMENT>
P17, 29.00, 17

> <NMREDATA_1D_31P>
Larmor=202
29.00, L=P17

$$$$
