
 OpenBabel06112616442D

 24 26  0  0  0  0  0  0  0  0999 V2000
    1.7969    1.4444    0.0000 C   0  0  0  0  0  0  0  0  0  0  0  0
    0.9630    0.9630    0.0000 O   0  0  0  0  0  0  0  0  0  0  0  0
    0.9630    0.0000    0.0000 P   0  0  0  0  0  0  0  0  0  0  0  0
    1.9259    0.0000    0.0000 O   0  0  0  0  0  0  0  0  0  0  0  0
    0.9630   -0.9630    0.0000 O   0  0  0  0  0  0  0  0  0  0  0  0
    0.1290   -1.4444    0.0000 C   0  0  0  0  0  0  0  0  0  0  0  0
    0.0000    0.0000    0.0000 C   0  0  0  0  0  0  0  0  0  0  0  0
   -0.5660    0.7791    0.0000 C   0  0  0  0  0  0  0  0  0  0  0  0
   -0.2684    1.6949    0.0000 C   0  0  0  0  0  0  0  0  0  0  0  0
   -1.4818    0.4815    0.0000 O   0  0  0  0  0  0  0  0  0  0  0  0
   -1.4818   -0.4815    0.0000 C   0  0  0  0  0  0  0  0  0  0  0  0
   -2.2652   -2.2409    0.0000 C   0  0  0  0  0  0  0  0  0  0  0  0
   -3.2229   -2.3416    0.0000 C   0  0  0  0  0  0  0  0  0  0  0  0
   -3.6146   -3.2213    0.0000 C   0  0  0  0  0  0  0  0  0  0  0  0
   -3.0485   -4.0003    0.0000 C   0  0  0  0  0  0  0  0  0  0  0  0
   -2.0908   -3.8997    0.0000 C   0  0  0  0  0  0  0  0  0  0  0  0
   -1.6992   -3.0200    0.0000 C   0  0  0  0  0  0  0  0  0  0  0  0
   -2.4395   -0.5821    0.0000 C   0  0  0  0  0  0  0  0  0  0  0  0
   -3.0056    0.1969    0.0000 C   0  0  0  0  0  0  0  0  0  0  0  0
   -3.9632    0.0963    0.0000 C   0  0  0  0  0  0  0  0  0  0  0  0
   -4.3549   -0.7835    0.0000 C   0  0  0  0  0  0  0  0  0  0  0  0
   -3.7889   -1.5625    0.0000 C   0  0  0  0  0  0  0  0  0  0  0  0
   -2.8312   -1.4618    0.0000 C   0  0  0  0  0  0  0  0  0  0  0  0
   -0.5660   -0.7791    0.0000 C   0  0  0  0  0  0  0  0  0  0  0  0
  1  2  1  0  0  0  0
  2  3  1  0  0  0  0
  3  4  2  0  0  0  0
  3  5  1  0  0  0  0
  3  7  1  0  0  0  0
  5  6  1  0  0  0  0
  7 24  1  0  0  0  0
  7  8  2  0  0  0  0
  8  9  1  0  0  0  0
  8 10  1  0  0  0  0
 10 11  1  0  0  0  0
 11 12  1  0  0  0  0
 11 18  1  0  0  0  0
 11 24  1  0  0  0  0
 12 17  2  0  0  0  0
 12 13  1  0  0  0  0
 13 14  2  0  0  0  0
 14 15  1  0  0  0  0
 15 16  2  0  0  0  0
 16 17  1  0  0  0  0
 18 23  2  0  0  0  0
 18 19  1  0  0  0  0
 19 20  2  0  0  0  0
 20 21  1  0  0  0  0
 21 22  2  0  0  0  0
 22 23  1  0  0  0  0
M  END
> <NMREDATA_VERSION>
1.1

> <NMREDATA_LEVEL>
0

> <NMREDATA_SOLVENT>
CDCl3

> <NMREDATA_FORMULA>
C19H21O4P

> <NMREDATA_SMILES>
COP(=O)(C1=C(C)OC(C1)(c1ccccc1)c1ccccc1)OC

> <NMREDATA_ASSIGNMENT>
P3, 21.40, 3

> <NMREDATA_1D_31P>
Larmor=162
21.40, L=P3

$$$$
