
 OpenBabel06112616482D

 40 42  0  0  1  0  0  0  0  0999 V2000
    6.3488    4.9445    0.0000 C   0  0  0  0  0  0  0  0  0  0  0  0
    5.8605    4.0986    0.0000 C   0  0  0  0  0  0  0  0  0  0  0  0
    6.3488    3.2527    0.0000 C   0  0  0  0  0  0  0  0  0  0  0  0
    5.8605    2.4068    0.0000 C   0  0  0  0  0  0  0  0  0  0  0  0
    4.8837    2.4068    0.0000 C   0  0  0  0  0  0  0  0  0  0  0  0
    3.9070    0.7150    0.0000 C   0  0  3  0  0  0  0  0  0  0  0  0
    2.9302    0.7150    0.0000 C   0  0  0  0  0  0  0  0  0  0  0  0
    2.4419   -0.1309    0.0000 C   0  0  3  0  0  0  0  0  0  0  0  0
    2.9302   -0.9767    0.0000 C   0  0  0  0  0  0  0  0  0  0  0  0
    3.9070   -0.9767    0.0000 O   0  0  0  0  0  0  0  0  0  0  0  0
    2.4419   -1.8226    0.0000 O   0  0  0  0  0  0  0  0  0  0  0  0
    2.9302   -2.6685    0.0000 C   0  0  0  0  0  0  0  0  0  0  0  0
    3.9070   -2.6685    0.0000 C   0  0  0  0  0  0  0  0  0  0  0  0
    1.4651   -0.1309    0.0000 C   0  0  0  0  0  0  0  0  0  0  0  0
    0.9767    0.7150    0.0000 O   0  0  0  0  0  0  0  0  0  0  0  0
    1.4651    1.5609    0.0000 C   0  0  0  0  0  0  0  0  0  0  0  0
    2.4419    1.5609    0.0000 C   0  0  0  0  0  0  0  0  0  0  0  0
    0.9767   -0.9767    0.0000 O   0  3  0  0  0  0  0  0  0  0  0  0
    0.0000   -0.9767    0.0000 B   0  5  0  0  0  0  0  0  0  0  0  0
    0.0000   -1.9535    0.0000 O   0  0  0  0  0  0  0  0  0  0  0  0
   -0.9767   -0.9767    0.0000 F   0  0  0  0  0  0  0  0  0  0  0  0
    0.0000    0.0000    0.0000 F   0  0  0  0  0  0  0  0  0  0  0  0
    4.3953   -0.1309    0.0000 P   0  0  0  0  0  0  0  0  0  0  0  0
    3.5495   -0.6192    0.0000 O   0  0  0  0  0  0  0  0  0  0  0  0
    4.8837   -0.9767    0.0000 C   0  0  0  0  0  0  0  0  0  0  0  0
    5.8605   -0.9767    0.0000 C   0  0  0  0  0  0  0  0  0  0  0  0
    6.3488   -1.8226    0.0000 C   0  0  0  0  0  0  0  0  0  0  0  0
    5.8605   -2.6685    0.0000 C   0  0  0  0  0  0  0  0  0  0  0  0
    6.3488   -3.5144    0.0000 C   0  0  0  0  0  0  0  0  0  0  0  0
    4.8837   -2.6685    0.0000 C   0  0  0  0  0  0  0  0  0  0  0  0
    4.3953   -1.8226    0.0000 C   0  0  0  0  0  0  0  0  0  0  0  0
    5.2412    0.3575    0.0000 C   0  0  0  0  0  0  0  0  0  0  0  0
    5.2412    1.3343    0.0000 C   0  0  0  0  0  0  0  0  0  0  0  0
    6.0871    1.8226    0.0000 C   0  0  0  0  0  0  0  0  0  0  0  0
    6.9330    1.3343    0.0000 C   0  0  0  0  0  0  0  0  0  0  0  0
    7.7789    1.8226    0.0000 C   0  0  0  0  0  0  0  0  0  0  0  0
    6.9330    0.3575    0.0000 C   0  0  0  0  0  0  0  0  0  0  0  0
    6.0871   -0.1309    0.0000 C   0  0  0  0  0  0  0  0  0  0  0  0
    4.3953    3.2527    0.0000 C   0  0  0  0  0  0  0  0  0  0  0  0
    4.8837    4.0986    0.0000 C   0  0  0  0  0  0  0  0  0  0  0  0
  1  2  1  0  0  0  0
  2 40  2  0  0  0  0
  2  3  1  0  0  0  0
  3  4  2  0  0  0  0
  4  5  1  0  0  0  0
  5  6  1  0  0  0  0
  5 39  2  0  0  0  0
  6  7  1  0  0  0  0
  6 23  1  0  0  0  0
  7  8  1  0  0  0  0
  8  9  1  0  0  0  0
  8 14  1  0  0  0  0
  9 10  2  0  0  0  0
  9 11  1  0  0  0  0
 11 12  1  0  0  0  0
 12 13  1  0  0  0  0
 14 15  1  0  0  0  0
 14 18  2  0  0  0  0
 15 16  1  0  0  0  0
 16 17  1  0  0  0  0
 18 19  1  0  0  0  0
 19 20  1  0  0  0  0
 19 21  1  0  0  0  0
 19 22  1  0  0  0  0
 23 24  2  0  0  0  0
 23 25  1  0  0  0  0
 23 32  1  0  0  0  0
 25 31  2  0  0  0  0
 25 26  1  0  0  0  0
 26 27  2  0  0  0  0
 27 28  1  0  0  0  0
 28 29  1  0  0  0  0
 28 30  2  0  0  0  0
 30 31  1  0  0  0  0
 32 38  2  0  0  0  0
 32 33  1  0  0  0  0
 33 34  2  0  0  0  0
 34 35  1  0  0  0  0
 35 36  1  0  0  0  0
 35 37  2  0  0  0  0
 37 38  1  0  0  0  0
 39 40  1  0  0  0  0
M  END
> <NMREDATA_VERSION>
1.1

> <NMREDATA_LEVEL>
0

> <NMREDATA_SOLVENT>
CDCl3

> <NMREDATA_FORMULA>
C30H36BF2O6P

> <NMREDATA_SMILES>
CCOC(=O)C(/C(=[O+]/[B-](F)(F)O)/OCC)CC(P(=O)(c1ccc(cc1)C)c1ccc(cc1)C)c1ccc(cc1)C

> <NMREDATA_ASSIGNMENT>
P23, 34.62, 23

> <NMREDATA_1D_31P>
Larmor=162
34.62, L=P23

$$$$
