
 OpenBabel06112616442D

 27 29  0  0  1  0  0  0  0  0999 V2000
    5.3167   -1.8038    0.0000 C    0  0  0  0  0  0  0  0  0  0  0  0
    4.8333   -0.9667    0.0000 O    0  0  0  0  0  0  0  0  0  0  0  0
    3.8667   -0.9667    0.0000 C    0  0  0  0  0  0  0  0  0  0  0  0
    3.3833   -0.1295    0.0000 C    0  0  0  0  0  0  0  0  0  0  0  0
    2.4167   -0.1295    0.0000 C    0  0  0  0  0  0  0  0  0  0  0  0
    1.9333   -0.9667    0.0000 C    0  0  0  0  0  0  0  0  0  0  0  0
    0.0000   -0.9667    0.0000 P    0  0  0  0  0  0  0  0  0  0  0  0
    0.0000   -1.9333    0.0000 O    0  0  0  0  0  0  0  0  0  0  0  0
   -0.9667   -0.9667    0.0000 C    0  0  0  0  0  0  0  0  0  0  0  0
   -1.4500   -0.1295    0.0000 C    0  0  0  0  0  0  0  0  0  0  0  0
   -2.4167   -0.1295    0.0000 C    0  0  0  0  0  0  0  0  0  0  0  0
   -2.9000   -0.9667    0.0000 C    0  0  0  0  0  0  0  0  0  0  0  0
   -3.8667   -0.9667    0.0000 O    0  0  0  0  0  0  0  0  0  0  0  0
   -4.3500   -0.1295    0.0000 C    0  0  0  0  0  0  0  0  0  0  0  0
   -2.4167   -1.8038    0.0000 C    0  0  0  0  0  0  0  0  0  0  0  0
   -1.4500   -1.8038    0.0000 C    0  0  0  0  0  0  0  0  0  0  0  0
    0.0000    0.0000    0.0000 C    0  0  3  0  0  0  0  0  0  0  0  0
   -0.8372    0.4833    0.0000 Cl   0  0  0  0  0  0  0  0  0  0  0  0
    0.8372    0.4833    0.0000 C    0  0  0  0  0  0  0  0  0  0  0  0
    1.6743    0.0000    0.0000 C    0  0  0  0  0  0  0  0  0  0  0  0
    2.5115    0.4833    0.0000 C    0  0  0  0  0  0  0  0  0  0  0  0
    2.5115    1.4500    0.0000 C    0  0  0  0  0  0  0  0  0  0  0  0
    3.3486    1.9333    0.0000 C    0  0  0  0  0  0  0  0  0  0  0  0
    1.6743    1.9333    0.0000 C    0  0  0  0  0  0  0  0  0  0  0  0
    0.8372    1.4500    0.0000 C    0  0  0  0  0  0  0  0  0  0  0  0
    2.4167   -1.8038    0.0000 C    0  0  0  0  0  0  0  0  0  0  0  0
    3.3833   -1.8038    0.0000 C    0  0  0  0  0  0  0  0  0  0  0  0
  1  2  1  0  0  0  0
  2  3  1  0  0  0  0
  3 27  2  0  0  0  0
  3  4  1  0  0  0  0
  4  5  2  0  0  0  0
  5  6  1  0  0  0  0
  6  7  1  0  0  0  0
  6 26  2  0  0  0  0
  7  8  2  0  0  0  0
  7  9  1  0  0  0  0
  7 17  1  0  0  0  0
  9 16  2  0  0  0  0
  9 10  1  0  0  0  0
 10 11  2  0  0  0  0
 11 12  1  0  0  0  0
 12 13  1  0  0  0  0
 12 15  2  0  0  0  0
 13 14  1  0  0  0  0
 15 16  1  0  0  0  0
 17 18  1  0  0  0  0
 17 19  1  0  0  0  0
 19 25  2  0  0  0  0
 19 20  1  0  0  0  0
 20 21  2  0  0  0  0
 21 22  1  0  0  0  0
 22 23  1  0  0  0  0
 22 24  2  0  0  0  0
 24 25  1  0  0  0  0
 26 27  1  0  0  0  0
M  END
> <NMREDATA_VERSION>
1.1

> <NMREDATA_LEVEL>
0

> <NMREDATA_SOLVENT>
CDCl3

> <NMREDATA_FORMULA>
C22H22ClO3P

> <NMREDATA_SMILES>
COc1ccc(cc1)P(=O)(C(c1ccc(cc1)C)Cl)c1ccc(cc1)OC

> <NMREDATA_ASSIGNMENT>
P7, 29.70, 7

> <NMREDATA_1D_31P>
Larmor=243
29.70, L=P7

$$$$
