
 OpenBabel06112616452D

 39 45  0  0  0  0  0  0  0  0999 V2000
   -3.1896   -5.5246    0.0000 C   0  0  0  0  0  0  0  0  0  0  0  0
   -2.3923   -5.0643    0.0000 C   0  0  0  0  0  0  0  0  0  0  0  0
   -2.3923   -4.1431    0.0000 C   0  0  0  0  0  0  0  0  0  0  0  0
   -1.5950   -3.6827    0.0000 C   0  0  0  0  0  0  0  0  0  0  0  0
   -0.7973   -4.1430    0.0000 C   0  0  0  0  0  0  0  0  0  0  0  0
   -0.7972   -5.0643    0.0000 C   0  0  0  0  0  0  0  0  0  0  0  0
   -1.5950   -5.5247    0.0000 C   0  0  0  0  0  0  0  0  0  0  0  0
    0.7978   -5.0642    0.0000 C   0  0  0  0  0  0  0  0  0  0  0  0
    1.5956   -5.5246    0.0000 C   0  0  0  0  0  0  0  0  0  0  0  0
    2.3928   -5.0642    0.0000 C   0  0  0  0  0  0  0  0  0  0  0  0
    3.1902   -5.5245    0.0000 C   0  0  0  0  0  0  0  0  0  0  0  0
    4.0907   -5.3331    0.0000 C   0  0  0  0  0  0  0  0  0  0  0  0
    4.7067   -6.0173    0.0000 C   0  0  0  0  0  0  0  0  0  0  0  0
    4.4222   -6.8928    0.0000 C   0  0  0  0  0  0  0  0  0  0  0  0
    3.5217   -7.0843    0.0000 C   0  0  0  0  0  0  0  0  0  0  0  0
    2.9057   -6.4001    0.0000 C   0  0  0  0  0  0  0  0  0  0  0  0
    2.3928   -4.1429    0.0000 C   0  0  0  0  0  0  0  0  0  0  0  0
    1.5955   -3.6826    0.0000 C   0  0  0  0  0  0  0  0  0  0  0  0
    0.7978   -4.1430    0.0000 C   0  0  0  0  0  0  0  0  0  0  0  0
    0.0000   -3.6826    0.0000 N   0  0  0  0  0  0  0  0  0  0  0  0
    0.0000    0.0000    0.0000 P   0  0  0  0  0  0  0  0  0  0  0  0
    0.8411    0.3745    0.0000 O   0  0  0  0  0  0  0  0  0  0  0  0
   -0.3745    0.8411    0.0000 C   0  0  0  0  0  0  0  0  0  0  0  0
   -1.2901    0.9373    0.0000 C   0  0  0  0  0  0  0  0  0  0  0  0
   -1.6645    1.7784    0.0000 C   0  0  0  0  0  0  0  0  0  0  0  0
   -1.1234    2.5232    0.0000 C   0  0  0  0  0  0  0  0  0  0  0  0
   -0.2078    2.4269    0.0000 C   0  0  0  0  0  0  0  0  0  0  0  0
    0.1667    1.5859    0.0000 C   0  0  0  0  0  0  0  0  0  0  0  0
   -0.8411   -0.3745    0.0000 C   0  0  0  0  0  0  0  0  0  0  0  0
   -1.5859    0.1667    0.0000 C   0  0  0  0  0  0  0  0  0  0  0  0
   -2.4269   -0.2078    0.0000 C   0  0  0  0  0  0  0  0  0  0  0  0
   -2.5232   -1.1234    0.0000 C   0  0  0  0  0  0  0  0  0  0  0  0
   -1.7784   -1.6645    0.0000 C   0  0  0  0  0  0  0  0  0  0  0  0
   -1.7784   -0.6790    0.0000 C   0  0  0  0  0  0  0  0  0  0  0  0
   -3.5641   -6.3657    0.0000 C   0  0  0  0  0  0  0  0  0  0  0  0
   -4.4797   -6.4619    0.0000 C   0  0  0  0  0  0  0  0  0  0  0  0
   -5.0208   -5.7171    0.0000 C   0  0  0  0  0  0  0  0  0  0  0  0
   -4.6464   -4.8760    0.0000 C   0  0  0  0  0  0  0  0  0  0  0  0
   -3.7307   -4.7798    0.0000 C   0  0  0  0  0  0  0  0  0  0  0  0
  1 39  2  0  0  0  0
  1  2  1  0  0  0  0
  1 35  1  0  0  0  0
  2  7  2  0  0  0  0
  2  3  1  0  0  0  0
  3  4  2  0  0  0  0
  4  5  1  0  0  0  0
  5 20  1  0  0  0  0
  5  6  2  0  0  0  0
  6  7  1  0  0  0  0
  6  8  1  0  0  0  0
  8 19  2  0  0  0  0
  8  9  1  0  0  0  0
  9 10  2  0  0  0  0
 10 11  1  0  0  0  0
 10 17  1  0  0  0  0
 11 16  2  0  0  0  0
 11 12  1  0  0  0  0
 12 13  2  0  0  0  0
 13 14  1  0  0  0  0
 14 15  2  0  0  0  0
 15 16  1  0  0  0  0
 17 18  2  0  0  0  0
 18 19  1  0  0  0  0
 19 20  1  0  0  0  0
 20 21  1  0  0  0  0
 21 22  2  0  0  0  0
 21 23  1  0  0  0  0
 21 29  1  0  0  0  0
 23 28  2  0  0  0  0
 23 24  1  0  0  0  0
 24 25  2  0  0  0  0
 25 26  1  0  0  0  0
 26 27  2  0  0  0  0
 27 28  1  0  0  0  0
 29 34  2  0  0  0  0
 29 30  1  0  0  0  0
 30 31  2  0  0  0  0
 31 32  1  0  0  0  0
 32 33  2  0  0  0  0
 33 34  1  0  0  0  0
 35 36  2  0  0  0  0
 36 37  1  0  0  0  0
 37 38  2  0  0  0  0
 38 39  1  0  0  0  0
M  END
> <NMREDATA_VERSION>
1.1

> <NMREDATA_LEVEL>
0

> <NMREDATA_SOLVENT>
CDCl3

> <NMREDATA_FORMULA>
C36H26NOP

> <NMREDATA_SMILES>
O=P(n1c2ccc(cc2c2c1ccc(c2)c1ccccc1)c1ccccc1)(c1ccccc1)c1ccccc1

> <NMREDATA_ASSIGNMENT>
P21, 27.10, 21

> <NMREDATA_1D_31P>
Larmor=162
27.10, L=P21

$$$$
