
 OpenBabel06112616422D

 41 46  0  0  0  0  0  0  0  0999 V2000
   -0.8130   -5.1633    0.0000 C   0  0  0  0  0  0  0  0  0  0  0  0
    0.0000   -4.6939    0.0000 O   0  0  0  0  0  0  0  0  0  0  0  0
    0.0000   -3.7551    0.0000 C   0  0  0  0  0  0  0  0  0  0  0  0
    0.8130   -3.2857    0.0000 C   0  0  0  0  0  0  0  0  0  0  0  0
    0.8130   -2.3469    0.0000 C   0  0  0  0  0  0  0  0  0  0  0  0
    0.0000   -1.8776    0.0000 C   0  0  0  0  0  0  0  0  0  0  0  0
    0.0000   -0.9388    0.0000 P   0  0  0  0  0  0  0  0  0  0  0  0
   -0.9388   -0.9388    0.0000 O   0  0  0  0  0  0  0  0  0  0  0  0
    3.7551   -0.9388    0.0000 C   0  0  0  0  0  0  0  0  0  0  0  0
    4.1624   -0.0930    0.0000 C   0  0  0  0  0  0  0  0  0  0  0  0
    3.5771    0.6410    0.0000 C   0  0  0  0  0  0  0  0  0  0  0  0
    3.9201    1.5149    0.0000 C   0  0  0  0  0  0  0  0  0  0  0  0
    3.3348    2.2488    0.0000 C   0  0  0  0  0  0  0  0  0  0  0  0
    2.4065    2.1089    0.0000 C   0  0  0  0  0  0  0  0  0  0  0  0
    2.0635    1.2350    0.0000 C   0  0  0  0  0  0  0  0  0  0  0  0
    2.6488    0.5011    0.0000 C   0  0  0  0  0  0  0  0  0  0  0  0
    5.0777    0.1159    0.0000 C   0  0  0  0  0  0  0  0  0  0  0  0
    5.8116   -0.4694    0.0000 C   0  0  0  0  0  0  0  0  0  0  0  0
    6.5951    0.0478    0.0000 C   0  0  0  0  0  0  0  0  0  0  0  0
    7.5037   -0.1884    0.0000 C   0  0  0  0  0  0  0  0  0  0  0  0
    8.1625    0.4804    0.0000 C   0  0  0  0  0  0  0  0  0  0  0  0
    7.9128    1.3853    0.0000 C   0  0  0  0  0  0  0  0  0  0  0  0
    7.0042    1.6215    0.0000 C   0  0  0  0  0  0  0  0  0  0  0  0
    6.3454    0.9527    0.0000 C   0  0  0  0  0  0  0  0  0  0  0  0
    5.4075    0.9948    0.0000 N   0  0  0  0  0  0  0  0  0  0  0  0
    4.8904    1.7783    0.0000 C   0  0  0  0  0  0  0  0  0  0  0  0
    5.8116   -1.4082    0.0000 C   0  0  0  0  0  0  0  0  0  0  0  0
    6.6574   -1.8155    0.0000 O   0  0  0  0  0  0  0  0  0  0  0  0
    5.0777   -1.9935    0.0000 N   0  0  0  0  0  0  0  0  0  0  0  0
    5.2866   -2.9087    0.0000 C   0  0  0  0  0  0  0  0  0  0  0  0
    4.1624   -1.7846    0.0000 C   0  0  0  0  0  0  0  0  0  0  0  0
    0.0000    0.0000    0.0000 C   0  0  0  0  0  0  0  0  0  0  0  0
    0.8130    0.4694    0.0000 C   0  0  0  0  0  0  0  0  0  0  0  0
    0.8130    1.4082    0.0000 C   0  0  0  0  0  0  0  0  0  0  0  0
    0.0000    1.8776    0.0000 C   0  0  0  0  0  0  0  0  0  0  0  0
    0.0000    2.8163    0.0000 O   0  0  0  0  0  0  0  0  0  0  0  0
   -0.8130    3.2857    0.0000 C   0  0  0  0  0  0  0  0  0  0  0  0
   -0.8130    1.4082    0.0000 C   0  0  0  0  0  0  0  0  0  0  0  0
   -0.8130    0.4694    0.0000 C   0  0  0  0  0  0  0  0  0  0  0  0
   -0.8130   -2.3469    0.0000 C   0  0  0  0  0  0  0  0  0  0  0  0
   -0.8130   -3.2857    0.0000 C   0  0  0  0  0  0  0  0  0  0  0  0
  1  2  1  0  0  0  0
  2  3  1  0  0  0  0
  3 41  2  0  0  0  0
  3  4  1  0  0  0  0
  4  5  2  0  0  0  0
  5  6  1  0  0  0  0
  6  7  1  0  0  0  0
  6 40  2  0  0  0  0
  7  8  2  0  0  0  0
  7  9  1  0  0  0  0
  7 32  1  0  0  0  0
  9 31  1  0  0  0  0
  9 10  2  0  0  0  0
 10 11  1  0  0  0  0
 10 17  1  0  0  0  0
 11 16  2  0  0  0  0
 11 12  1  0  0  0  0
 12 13  2  0  0  0  0
 13 14  1  0  0  0  0
 14 15  2  0  0  0  0
 15 16  1  0  0  0  0
 17 25  1  0  0  0  0
 17 18  2  0  0  0  0
 18 19  1  0  0  0  0
 18 27  1  0  0  0  0
 19 24  2  0  0  0  0
 19 20  1  0  0  0  0
 20 21  2  0  0  0  0
 21 22  1  0  0  0  0
 22 23  2  0  0  0  0
 23 24  1  0  0  0  0
 24 25  1  0  0  0  0
 25 26  1  0  0  0  0
 27 28  2  0  0  0  0
 27 29  1  0  0  0  0
 29 30  1  0  0  0  0
 29 31  1  0  0  0  0
 32 39  2  0  0  0  0
 32 33  1  0  0  0  0
 33 34  2  0  0  0  0
 34 35  1  0  0  0  0
 35 36  1  0  0  0  0
 35 38  2  0  0  0  0
 36 37  1  0  0  0  0
 38 39  1  0  0  0  0
 40 41  1  0  0  0  0
M  END
> <NMREDATA_VERSION>
1.1

> <NMREDATA_LEVEL>
0

> <NMREDATA_SOLVENT>
CDCl3

> <NMREDATA_FORMULA>
C34H31N2O4P

> <NMREDATA_SMILES>
COc1ccc(cc1)P(=O)(C1=C(c2ccccc2)c2c(C(=O)N(C1)C)c1c(n2C)cccc1)c1ccc(cc1)OC

> <NMREDATA_ASSIGNMENT>
P7, 28.00, 7

> <NMREDATA_1D_31P>
Larmor=162
28.00, L=P7

$$$$
