
 OpenBabel06112616482D

  9  8  0  0  0  0  0  0  0  0999 V2000
         1        -3         0 C   0  0  0  0  0  0  0  0  0  0  0  0
         1        -2         0 C   0  0  0  0  0  0  0  0  0  0  0  0
         1        -1         0 C   0  0  0  0  0  0  0  0  0  0  0  0
         1         0         0 P   0  0  0  0  0  0  0  0  0  0  0  0
         2         0         0 C   0  0  0  0  0  0  0  0  0  0  0  0
         1         1         0 O   0  0  0  0  0  0  0  0  0  0  0  0
         0         0         0 C   0  0  0  0  0  0  0  0  0  0  0  0
        -1         0         0 C   0  0  0  0  0  0  0  0  0  0  0  0
        -2         0         0 C   0  0  0  0  0  0  0  0  0  0  0  0
  1  2  1  0  0  0  0
  2  3  3  0  0  0  0
  3  4  1  0  0  0  0
  4  5  1  0  0  0  0
  4  6  2  0  0  0  0
  4  7  1  0  0  0  0
  7  8  3  0  0  0  0
  8  9  1  0  0  0  0
M  END
> <NMREDATA_VERSION>
1.1

> <NMREDATA_LEVEL>
0

> <NMREDATA_SOLVENT>
CDCl3

> <NMREDATA_FORMULA>
C7H9OP

> <NMREDATA_SMILES>
CC#CP(=O)(C#CC)C

> <NMREDATA_ASSIGNMENT>
P4, -17.00, 4

> <NMREDATA_1D_31P>
Larmor=243
-17.00, L=P4

$$$$
