
 OpenBabel06112616482D

 33 38  0  0  0  0  0  0  0  0999 V2000
    0.8438   -0.4872    0.0000 C   0  0  0  0  0  0  0  0  0  0  0  0
    0.8438   -1.4615    0.0000 C   0  0  0  0  0  0  0  0  0  0  0  0
    0.0000   -1.9487    0.0000 C   0  0  0  0  0  0  0  0  0  0  0  0
   -0.8438   -1.4615    0.0000 C   0  0  0  0  0  0  0  0  0  0  0  0
   -1.6876   -1.9487    0.0000 C   0  0  0  0  0  0  0  0  0  0  0  0
   -2.5315   -1.4615    0.0000 C   0  0  0  0  0  0  0  0  0  0  0  0
   -3.3753   -1.9487    0.0000 C   0  0  0  0  0  0  0  0  0  0  0  0
   -4.2191   -1.4615    0.0000 C   0  0  0  0  0  0  0  0  0  0  0  0
   -5.0629   -1.9487    0.0000 C   0  0  0  0  0  0  0  0  0  0  0  0
   -5.0629   -2.9231    0.0000 C   0  0  0  0  0  0  0  0  0  0  0  0
   -4.2191   -3.4103    0.0000 C   0  0  0  0  0  0  0  0  0  0  0  0
   -3.3753   -2.9231    0.0000 C   0  0  0  0  0  0  0  0  0  0  0  0
   -2.5315   -3.4103    0.0000 P   0  0  3  0  0  0  0  0  0  0  0  0
   -2.0443   -4.2541    0.0000 C   0  0  0  0  0  0  0  0  0  0  0  0
   -2.5315   -5.0979    0.0000 C   0  0  0  0  0  0  0  0  0  0  0  0
   -2.0443   -5.9417    0.0000 C   0  0  0  0  0  0  0  0  0  0  0  0
   -1.0699   -5.9417    0.0000 C   0  0  0  0  0  0  0  0  0  0  0  0
   -0.5827   -5.0979    0.0000 C   0  0  0  0  0  0  0  0  0  0  0  0
   -1.0699   -4.2541    0.0000 C   0  0  0  0  0  0  0  0  0  0  0  0
   -3.0186   -4.2541    0.0000 O   0  0  0  0  0  0  0  0  0  0  0  0
   -1.6876   -2.9231    0.0000 N   0  0  0  0  0  0  0  0  0  0  0  0
    0.0000   -3.8974    0.0000 C   0  0  0  0  0  0  0  0  0  0  0  0
    0.0000   -4.8718    0.0000 C   0  0  0  0  0  0  0  0  0  0  0  0
    0.8438   -5.3590    0.0000 C   0  0  0  0  0  0  0  0  0  0  0  0
    1.6876   -4.8718    0.0000 C   0  0  0  0  0  0  0  0  0  0  0  0
    1.6876   -3.8974    0.0000 C   0  0  0  0  0  0  0  0  0  0  0  0
    2.5315   -3.4103    0.0000 C   0  0  0  0  0  0  0  0  0  0  0  0
    2.5315   -2.4359    0.0000 C   0  0  0  0  0  0  0  0  0  0  0  0
    1.6876   -1.9487    0.0000 C   0  0  0  0  0  0  0  0  0  0  0  0
    0.8438   -2.4359    0.0000 N   0  0  0  0  0  0  0  0  0  0  0  0
    0.8438   -3.4103    0.0000 C   0  0  0  0  0  0  0  0  0  0  0  0
   -0.8438   -0.4872    0.0000 C   0  0  0  0  0  0  0  0  0  0  0  0
    0.0000    0.0000    0.0000 C   0  0  0  0  0  0  0  0  0  0  0  0
  1 33  2  0  0  0  0
  1  2  1  0  0  0  0
  2  3  2  0  0  0  0
  3  4  1  0  0  0  0
  4  5  1  0  0  0  0
  4 32  2  0  0  0  0
  5 21  1  0  0  0  0
  5  6  2  0  0  0  0
  6  7  1  0  0  0  0
  7 12  2  0  0  0  0
  7  8  1  0  0  0  0
  8  9  2  0  0  0  0
  9 10  1  0  0  0  0
 10 11  2  0  0  0  0
 11 12  1  0  0  0  0
 12 13  1  0  0  0  0
 13 14  1  0  0  0  0
 13 20  2  0  0  0  0
 13 21  1  0  0  0  0
 14 19  2  0  0  0  0
 14 15  1  0  0  0  0
 15 16  2  0  0  0  0
 16 17  1  0  0  0  0
 17 18  2  0  0  0  0
 18 19  1  0  0  0  0
 21 22  1  0  0  0  0
 22 31  2  0  0  0  0
 22 23  1  0  0  0  0
 23 24  2  0  0  0  0
 24 25  1  0  0  0  0
 25 26  2  0  0  0  0
 26 31  1  0  0  0  0
 26 27  1  0  0  0  0
 27 28  2  0  0  0  0
 28 29  1  0  0  0  0
 29 30  2  0  0  0  0
 30 31  1  0  0  0  0
 32 33  1  0  0  0  0
M  END
> <NMREDATA_VERSION>
1.1

> <NMREDATA_LEVEL>
0

> <NMREDATA_SOLVENT>
CDCl3

> <NMREDATA_FORMULA>
C29H21N2OP

> <NMREDATA_SMILES>
O=P1(c2ccccc2)N(C(=Cc2c1cccc2)c1ccccc1)c1cccc2c1nccc2

> <NMREDATA_ASSIGNMENT>
P13, 19.40, 13

> <NMREDATA_1D_31P>
Larmor=162
19.40, L=P13

$$$$
