
 OpenBabel06112616462D

 21 22  0  0  1  0  0  0  0  0999 V2000
   -0.7321   -1.0000    0.0000 C   0  0  0  0  0  0  0  0  0  0  0  0
    0.1340   -1.5000    0.0000 C   0  0  0  0  0  0  0  0  0  0  0  0
    1.0000   -1.0000    0.0000 O   0  0  0  0  0  0  0  0  0  0  0  0
    1.0000    0.0000    0.0000 P   0  0  3  0  0  0  0  0  0  0  0  0
    2.0000    0.0000    0.0000 O   0  0  0  0  0  0  0  0  0  0  0  0
    1.0000    1.0000    0.0000 O   0  0  0  0  0  0  0  0  0  0  0  0
    0.0000    0.0000    0.0000 O   0  0  0  0  0  0  0  0  0  0  0  0
   -0.5000    0.8660    0.0000 C   0  0  0  0  0  0  0  0  0  0  0  0
    0.0000    1.7321    0.0000 O   0  0  0  0  0  0  0  0  0  0  0  0
   -1.5000    0.8660    0.0000 C   0  0  3  0  0  0  0  0  0  0  0  0
   -2.0000    1.7321    0.0000 N   0  0  0  0  0  0  0  0  0  0  0  0
   -2.0000    0.0000    0.0000 C   0  0  0  0  0  0  0  0  0  0  0  0
   -3.0000    0.0000    0.0000 C   0  0  0  0  0  0  0  0  0  0  0  0
   -3.5878   -0.8090    0.0000 C   0  0  0  0  0  0  0  0  0  0  0  0
   -4.5388   -0.5000    0.0000 N   0  0  0  0  0  0  0  0  0  0  0  0
   -4.5388    0.5000    0.0000 C   0  0  0  0  0  0  0  0  0  0  0  0
   -5.2820    1.1691    0.0000 C   0  0  0  0  0  0  0  0  0  0  0  0
   -5.0741    2.1473    0.0000 C   0  0  0  0  0  0  0  0  0  0  0  0
   -4.1230    2.4563    0.0000 C   0  0  0  0  0  0  0  0  0  0  0  0
   -3.3799    1.7872    0.0000 C   0  0  0  0  0  0  0  0  0  0  0  0
   -3.5878    0.8090    0.0000 C   0  0  0  0  0  0  0  0  0  0  0  0
  1  2  1  0  0  0  0
  2  3  1  0  0  0  0
  3  4  1  0  0  0  0
  4  5  2  0  0  0  0
  4  6  1  0  0  0  0
  4  7  1  0  0  0  0
  7  8  1  0  0  0  0
  8  9  2  0  0  0  0
  8 10  1  0  0  0  0
 10 11  1  0  0  0  0
 10 12  1  0  0  0  0
 12 13  1  0  0  0  0
 13 21  1  0  0  0  0
 13 14  2  0  0  0  0
 14 15  1  0  0  0  0
 15 16  1  0  0  0  0
 16 21  2  0  0  0  0
 16 17  1  0  0  0  0
 17 18  2  0  0  0  0
 18 19  1  0  0  0  0
 19 20  2  0  0  0  0
 20 21  1  0  0  0  0
M  END
> <NMREDATA_VERSION>
1.1

> <NMREDATA_LEVEL>
0

> <NMREDATA_SOLVENT>
D2O

> <NMREDATA_FORMULA>
C13H17N2O5P

> <NMREDATA_SMILES>
CCOP(=O)(OC(=O)C(Cc1c[nH]c2c1cccc2)N)O

> <NMREDATA_ASSIGNMENT>
P4, -7.52, 4

> <NMREDATA_1D_31P>
Larmor=162
-7.52, L=P4

$$$$
