
 OpenBabel06112616432D

 29 32  0  0  0  0  0  0  0  0999 V2000
    1.6942   -0.3601    0.0000 C   0  0  0  0  0  0  0  0  0  0  0  0
    2.6453   -0.0511    0.0000 N   0  0  0  0  0  0  0  0  0  0  0  0
    0.7431   -0.6691    0.0000 C   0  0  0  0  0  0  0  0  0  0  0  0
    0.5352   -1.6473    0.0000 C   0  0  0  0  0  0  0  0  0  0  0  0
   -0.4158   -1.9563    0.0000 C   0  0  0  0  0  0  0  0  0  0  0  0
   -1.1590   -1.2872    0.0000 C   0  0  0  0  0  0  0  0  0  0  0  0
   -2.1100   -1.5962    0.0000 C   0  0  0  0  0  0  0  0  0  0  0  0
   -2.4190   -2.5472    0.0000 C   0  0  0  0  0  0  0  0  0  0  0  0
   -1.8313   -3.3563    0.0000 C   0  0  0  0  0  0  0  0  0  0  0  0
   -3.4190   -2.5472    0.0000 C   0  0  0  0  0  0  0  0  0  0  0  0
   -4.0068   -3.3563    0.0000 C   0  0  0  0  0  0  0  0  0  0  0  0
   -3.7281   -1.5962    0.0000 C   0  0  0  0  0  0  0  0  0  0  0  0
   -4.6791   -1.2872    0.0000 C   0  0  0  0  0  0  0  0  0  0  0  0
   -5.4223   -1.9563    0.0000 C   0  0  0  0  0  0  0  0  0  0  0  0
   -6.3733   -1.6473    0.0000 C   0  0  0  0  0  0  0  0  0  0  0  0
   -6.5812   -0.6691    0.0000 C   0  0  0  0  0  0  0  0  0  0  0  0
   -5.8381    0.0000    0.0000 C   0  0  0  0  0  0  0  0  0  0  0  0
   -4.8870   -0.3090    0.0000 C   0  0  0  0  0  0  0  0  0  0  0  0
   -2.9190   -1.0084    0.0000 P   0  0  3  0  0  0  0  0  0  0  0  0
   -2.9190   -0.0084    0.0000 C   0  0  0  0  0  0  0  0  0  0  0  0
   -3.7851    0.4916    0.0000 C   0  0  0  0  0  0  0  0  0  0  0  0
   -3.7851    1.4916    0.0000 C   0  0  0  0  0  0  0  0  0  0  0  0
   -2.9190    1.9916    0.0000 C   0  0  0  0  0  0  0  0  0  0  0  0
   -2.9190    2.9916    0.0000 C   0  0  0  0  0  0  0  0  0  0  0  0
   -2.9190    3.9916    0.0000 N   0  0  0  0  0  0  0  0  0  0  0  0
   -2.0530    1.4916    0.0000 C   0  0  0  0  0  0  0  0  0  0  0  0
   -2.0530    0.4916    0.0000 C   0  0  0  0  0  0  0  0  0  0  0  0
   -0.9511   -0.3090    0.0000 C   0  0  0  0  0  0  0  0  0  0  0  0
    0.0000    0.0000    0.0000 C   0  0  0  0  0  0  0  0  0  0  0  0
  1  2  3  0  0  0  0
  1  3  1  0  0  0  0
  3 29  2  0  0  0  0
  3  4  1  0  0  0  0
  4  5  2  0  0  0  0
  5  6  1  0  0  0  0
  6  7  1  0  0  0  0
  6 28  2  0  0  0  0
  7 19  1  0  0  0  0
  7  8  2  0  0  0  0
  8  9  1  0  0  0  0
  8 10  1  0  0  0  0
 10 11  1  0  0  0  0
 10 12  2  0  0  0  0
 12 13  1  0  0  0  0
 12 19  1  0  0  0  0
 13 18  2  0  0  0  0
 13 14  1  0  0  0  0
 14 15  2  0  0  0  0
 15 16  1  0  0  0  0
 16 17  2  0  0  0  0
 17 18  1  0  0  0  0
 19 20  1  0  0  0  0
 20 27  2  0  0  0  0
 20 21  1  0  0  0  0
 21 22  2  0  0  0  0
 22 23  1  0  0  0  0
 23 24  1  0  0  0  0
 23 26  2  0  0  0  0
 24 25  3  0  0  0  0
 26 27  1  0  0  0  0
 28 29  1  0  0  0  0
M  END
> <NMREDATA_VERSION>
1.1

> <NMREDATA_LEVEL>
0

> <NMREDATA_SOLVENT>
CDCl3

> <NMREDATA_FORMULA>
C26H19N2P

> <NMREDATA_SMILES>
N#Cc1ccc(cc1)p1c(c2ccc(cc2)C#N)c(c(c1c1ccccc1)C)C

> <NMREDATA_ASSIGNMENT>
P19, 12.71, 19

> <NMREDATA_1D_31P>
Larmor=202
12.71, L=P19

$$$$
