
 OpenBabel06112616432D

 36 38  0  0  1  0  0  0  0  0999 V2000
    3.0343    3.0714    0.0000 C   0  5  0  0  0  0  0  0  0  0  0  0
    3.1388    2.0768    0.0000 N   0  3  0  0  0  0  0  0  0  0  0  0
    3.2433    1.0823    0.0000 C   0  0  0  0  0  0  0  0  0  0  0  0
    2.2488    0.9778    0.0000 N   0  3  0  0  0  0  0  0  0  0  0  0
    1.2543    0.8733    0.0000 C   0  5  0  0  0  0  0  0  0  0  0  0
    3.3479    0.0878    0.0000 C   0  0  3  0  0  0  0  0  0  0  0  0
    2.5388   -0.5000    0.0000 C   0  0  0  0  0  0  0  0  0  0  0  0
    1.5878   -0.1910    0.0000 C   0  0  0  0  0  0  0  0  0  0  0  0
    1.0000   -1.0000    0.0000 N   0  0  0  0  0  0  0  0  0  0  0  0
    0.0000   -1.0000    0.0000 S   0  0  0  0  0  0  0  0  0  0  0  0
    0.0000   -2.0000    0.0000 O   0  0  0  0  0  0  0  0  0  0  0  0
   -1.0000   -1.0000    0.0000 O   0  0  0  0  0  0  0  0  0  0  0  0
    0.0000    0.0000    0.0000 C   0  0  0  0  0  0  0  0  0  0  0  0
    0.8660    0.5000    0.0000 C   0  0  0  0  0  0  0  0  0  0  0  0
    0.8660    1.5000    0.0000 C   0  0  0  0  0  0  0  0  0  0  0  0
    0.0000    2.0000    0.0000 C   0  0  0  0  0  0  0  0  0  0  0  0
    0.0000    3.0000    0.0000 C   0  0  0  0  0  0  0  0  0  0  0  0
   -0.8660    1.5000    0.0000 C   0  0  0  0  0  0  0  0  0  0  0  0
   -0.8660    0.5000    0.0000 C   0  0  0  0  0  0  0  0  0  0  0  0
    1.5878   -1.8090    0.0000 C   0  0  0  0  0  0  0  0  0  0  0  0
    2.5388   -1.5000    0.0000 C   0  0  0  0  0  0  0  0  0  0  0  0
    3.2820   -2.1691    0.0000 C   0  0  0  0  0  0  0  0  0  0  0  0
    3.0741   -3.1473    0.0000 C   0  0  0  0  0  0  0  0  0  0  0  0
    2.1230   -3.4563    0.0000 C   0  0  0  0  0  0  0  0  0  0  0  0
    1.3799   -2.7872    0.0000 C   0  0  0  0  0  0  0  0  0  0  0  0
    4.2614   -0.3190    0.0000 P   0  0  0  0  0  0  0  0  0  0  0  0
    3.8547   -1.2325    0.0000 O   0  0  0  0  0  0  0  0  0  0  0  0
    4.4425   -2.0415    0.0000 C   0  0  0  0  0  0  0  0  0  0  0  0
    5.1749   -0.7257    0.0000 O   0  0  0  0  0  0  0  0  0  0  0  0
    5.2795   -1.7202    0.0000 C   0  0  0  0  0  0  0  0  0  0  0  0
    4.6681    0.5946    0.0000 O   0  0  0  0  0  0  0  0  0  0  0  0
    4.2379    1.1868    0.0000 C   0  0  0  0  0  0  0  0  0  0  0  0
    4.6446    2.1004    0.0000 C   0  0  0  0  0  0  0  0  0  0  0  0
    5.6391    2.2049    0.0000 C   0  0  0  0  0  0  0  0  0  0  0  0
    6.0458    3.1185    0.0000 C   0  0  0  0  0  0  0  0  0  0  0  0
    6.2269    1.3959    0.0000 C   0  0  0  0  0  0  0  0  0  0  0  0
  1  2  3  0  0  0  0
  2  3  1  0  0  0  0
  3  4  1  0  0  0  0
  3  6  1  0  0  0  0
  3 32  1  0  0  0  0
  4  5  3  0  0  0  0
  6  7  1  0  0  0  0
  6 26  1  0  0  0  0
  7 21  1  0  0  0  0
  7  8  2  0  0  0  0
  8  9  1  0  0  0  0
  9 10  1  0  0  0  0
  9 20  1  0  0  0  0
 10 11  2  0  0  0  0
 10 12  2  0  0  0  0
 10 13  1  0  0  0  0
 13 19  2  0  0  0  0
 13 14  1  0  0  0  0
 14 15  2  0  0  0  0
 15 16  1  0  0  0  0
 16 17  1  0  0  0  0
 16 18  2  0  0  0  0
 18 19  1  0  0  0  0
 20 25  2  0  0  0  0
 20 21  1  0  0  0  0
 21 22  2  0  0  0  0
 22 23  1  0  0  0  0
 23 24  2  0  0  0  0
 24 25  1  0  0  0  0
 26 27  1  0  0  0  0
 26 29  1  0  0  0  0
 26 31  2  0  0  0  0
 27 28  1  0  0  0  0
 29 30  1  0  0  0  0
 32 33  1  0  0  0  0
 33 34  2  0  0  0  0
 34 35  1  0  0  0  0
 34 36  1  0  0  0  0
M  END
> <NMREDATA_VERSION>
1.1

> <NMREDATA_LEVEL>
0

> <NMREDATA_SOLVENT>
CDCl3

> <NMREDATA_FORMULA>
C26H28N3O5PS

> <NMREDATA_SMILES>
[C-]#[N+]C(C(P(=O)(OC)OC)c1cn(c2c1cccc2)S(=O)(=O)c1ccc(cc1)C)(CC=C(C)C)[N+]#[C-]

> <NMREDATA_ASSIGNMENT>
P26, 20.69, 26

> <NMREDATA_1D_31P>
Larmor=122
20.69, L=P26

$$$$
