
 OpenBabel06112616472D

 21 22  0  0  0  0  0  0  0  0999 V2000
   -1.7223   -1.0540    0.0000 C   0  0  0  0  0  0  0  0  0  0  0  0
   -2.6580   -0.8552    0.0000 C   0  0  0  0  0  0  0  0  0  0  0  0
   -3.5677   -1.1508    0.0000 C   0  0  0  0  0  0  0  0  0  0  0  0
   -2.8568   -1.7908    0.0000 C   0  0  0  0  0  0  0  0  0  0  0  0
   -2.9535    0.0545    0.0000 N   0  0  0  0  0  0  0  0  0  0  0  0
   -3.8632    0.3501    0.0000 C   0  0  0  0  0  0  0  0  0  0  0  0
   -3.8632    1.3066    0.0000 C   0  0  0  0  0  0  0  0  0  0  0  0
   -2.9535    1.6022    0.0000 N   0  0  0  0  0  0  0  0  0  0  0  0
   -2.6580    2.5119    0.0000 C   0  0  0  0  0  0  0  0  0  0  0  0
   -2.8568    3.4475    0.0000 C   0  0  0  0  0  0  0  0  0  0  0  0
   -3.5677    2.8075    0.0000 C   0  0  0  0  0  0  0  0  0  0  0  0
   -1.7223    2.7108    0.0000 C   0  0  0  0  0  0  0  0  0  0  0  0
   -2.3913    0.8284    0.0000 P   0  0  3  0  0  0  0  0  0  0  0  0
   -0.4783    0.8284    0.0000 C   0  0  0  0  0  0  0  0  0  0  0  0
    0.0000    1.6567    0.0000 C   0  0  0  0  0  0  0  0  0  0  0  0
   -0.4783    2.4851    0.0000 F   0  0  0  0  0  0  0  0  0  0  0  0
    0.9565    1.6567    0.0000 C   0  0  0  0  0  0  0  0  0  0  0  0
    1.4348    0.8284    0.0000 C   0  0  0  0  0  0  0  0  0  0  0  0
    0.9565    0.0000    0.0000 C   0  0  0  0  0  0  0  0  0  0  0  0
    0.0000    0.0000    0.0000 C   0  0  0  0  0  0  0  0  0  0  0  0
   -0.4783   -0.8284    0.0000 F   0  0  0  0  0  0  0  0  0  0  0  0
  1  2  1  0  0  0  0
  2  3  1  0  0  0  0
  2  4  1  0  0  0  0
  2  5  1  0  0  0  0
  5 13  1  0  0  0  0
  5  6  1  0  0  0  0
  6  7  2  0  0  0  0
  7  8  1  0  0  0  0
  8  9  1  0  0  0  0
  8 13  1  0  0  0  0
  9 10  1  0  0  0  0
  9 11  1  0  0  0  0
  9 12  1  0  0  0  0
 13 14  1  0  0  0  0
 14 20  2  0  0  0  0
 14 15  1  0  0  0  0
 15 16  1  0  0  0  0
 15 17  2  0  0  0  0
 17 18  1  0  0  0  0
 18 19  2  0  0  0  0
 19 20  1  0  0  0  0
 20 21  1  0  0  0  0
M  END
> <NMREDATA_VERSION>
1.1

> <NMREDATA_LEVEL>
0

> <NMREDATA_SOLVENT>
CDCl3

> <NMREDATA_FORMULA>
C16H23F2N2P

> <NMREDATA_SMILES>
CC(N1C=CN(P1c1c(F)cccc1F)C(C)(C)C)(C)C

> <NMREDATA_ASSIGNMENT>
P13, 77.83, 13

> <NMREDATA_1D_31P>
Larmor=162
77.83, L=P13

$$$$
