
 OpenBabel06112616432D

 42 48  0  0  0  0  0  0  0  0999 V2000
    0.7443    0.3120    0.0000 C   0  0  0  0  0  0  0  0  0  0  0  0
    1.2443   -0.5540    0.0000 C   0  0  0  0  0  0  0  0  0  0  0  0
    0.2443   -0.5540    0.0000 C   0  0  0  0  0  0  0  0  0  0  0  0
    2.1104   -0.0540    0.0000 C   0  0  0  0  0  0  0  0  0  0  0  0
    1.2443   -1.5540    0.0000 P   0  0  3  0  0  0  0  0  0  0  0  0
    2.1104   -2.0540    0.0000 C   0  0  0  0  0  0  0  0  0  0  0  0
    2.1104   -3.0540    0.0000 C   0  0  0  0  0  0  0  0  0  0  0  0
    2.9764   -3.5540    0.0000 C   0  0  0  0  0  0  0  0  0  0  0  0
    2.9764   -4.5540    0.0000 C   0  0  0  0  0  0  0  0  0  0  0  0
    3.8424   -5.0540    0.0000 C   0  0  0  0  0  0  0  0  0  0  0  0
    4.7084   -4.5540    0.0000 C   0  0  0  0  0  0  0  0  0  0  0  0
    4.7084   -3.5540    0.0000 C   0  0  0  0  0  0  0  0  0  0  0  0
    3.8424   -3.0540    0.0000 C   0  0  0  0  0  0  0  0  0  0  0  0
    3.8424   -2.0540    0.0000 C   0  0  0  0  0  0  0  0  0  0  0  0
    4.7084   -1.5540    0.0000 C   0  0  0  0  0  0  0  0  0  0  0  0
    4.7084   -0.5540    0.0000 C   0  0  0  0  0  0  0  0  0  0  0  0
    3.8424   -0.0540    0.0000 C   0  0  0  0  0  0  0  0  0  0  0  0
    2.9764   -0.5540    0.0000 C   0  0  0  0  0  0  0  0  0  0  0  0
    2.9764   -1.5540    0.0000 C   0  0  0  0  0  0  0  0  0  0  0  0
    0.3783   -2.0540    0.0000 C   0  0  0  0  0  0  0  0  0  0  0  0
    0.2738   -3.0485    0.0000 N   0  0  0  0  0  0  0  0  0  0  0  0
   -0.7044   -3.2564    0.0000 C   0  0  0  0  0  0  0  0  0  0  0  0
   -1.1111   -4.1700    0.0000 C   0  0  0  0  0  0  0  0  0  0  0  0
   -0.5233   -4.9790    0.0000 C   0  0  0  0  0  0  0  0  0  0  0  0
   -0.9301   -5.8926    0.0000 C   0  0  0  0  0  0  0  0  0  0  0  0
   -1.9246   -5.9971    0.0000 C   0  0  0  0  0  0  0  0  0  0  0  0
   -2.5124   -5.1881    0.0000 C   0  0  0  0  0  0  0  0  0  0  0  0
   -2.1056   -4.2745    0.0000 C   0  0  0  0  0  0  0  0  0  0  0  0
   -1.2044   -2.3904    0.0000 C   0  0  0  0  0  0  0  0  0  0  0  0
   -2.1989   -2.2859    0.0000 C   0  0  0  0  0  0  0  0  0  0  0  0
   -2.7867   -3.0949    0.0000 C   0  0  0  0  0  0  0  0  0  0  0  0
   -3.7812   -2.9904    0.0000 C   0  0  0  0  0  0  0  0  0  0  0  0
   -4.1879   -2.0768    0.0000 C   0  0  0  0  0  0  0  0  0  0  0  0
   -3.6001   -1.2678    0.0000 C   0  0  0  0  0  0  0  0  0  0  0  0
   -2.6056   -1.3723    0.0000 C   0  0  0  0  0  0  0  0  0  0  0  0
   -0.5352   -1.6473    0.0000 N   0  0  0  0  0  0  0  0  0  0  0  0
   -0.7431   -0.6691    0.0000 C   0  0  0  0  0  0  0  0  0  0  0  0
   -1.6942   -0.3601    0.0000 C   0  0  0  0  0  0  0  0  0  0  0  0
   -1.9021    0.6180    0.0000 C   0  0  0  0  0  0  0  0  0  0  0  0
   -1.1590    1.2872    0.0000 C   0  0  0  0  0  0  0  0  0  0  0  0
   -0.2079    0.9781    0.0000 C   0  0  0  0  0  0  0  0  0  0  0  0
    0.0000    0.0000    0.0000 C   0  0  0  0  0  0  0  0  0  0  0  0
  1  2  1  0  0  0  0
  2  3  1  0  0  0  0
  2  4  1  0  0  0  0
  2  5  1  0  0  0  0
  5  6  1  0  0  0  0
  5 20  1  0  0  0  0
  6 19  2  0  0  0  0
  6  7  1  0  0  0  0
  7  8  2  0  0  0  0
  8 13  1  0  0  0  0
  8  9  1  0  0  0  0
  9 10  2  0  0  0  0
 10 11  1  0  0  0  0
 11 12  2  0  0  0  0
 12 13  1  0  0  0  0
 13 14  2  0  0  0  0
 14 19  1  0  0  0  0
 14 15  1  0  0  0  0
 15 16  2  0  0  0  0
 16 17  1  0  0  0  0
 17 18  2  0  0  0  0
 18 19  1  0  0  0  0
 20 36  1  0  0  0  0
 20 21  2  0  0  0  0
 21 22  1  0  0  0  0
 22 23  1  0  0  0  0
 22 29  2  0  0  0  0
 23 28  2  0  0  0  0
 23 24  1  0  0  0  0
 24 25  2  0  0  0  0
 25 26  1  0  0  0  0
 26 27  2  0  0  0  0
 27 28  1  0  0  0  0
 29 30  1  0  0  0  0
 29 36  1  0  0  0  0
 30 35  2  0  0  0  0
 30 31  1  0  0  0  0
 31 32  2  0  0  0  0
 32 33  1  0  0  0  0
 33 34  2  0  0  0  0
 34 35  1  0  0  0  0
 36 37  1  0  0  0  0
 37 42  2  0  0  0  0
 37 38  1  0  0  0  0
 38 39  2  0  0  0  0
 39 40  1  0  0  0  0
 40 41  2  0  0  0  0
 41 42  1  0  0  0  0
M  END
> <NMREDATA_VERSION>
1.1

> <NMREDATA_LEVEL>
0

> <NMREDATA_SOLVENT>
CD2Cl2

> <NMREDATA_FORMULA>
C39H33N2P

> <NMREDATA_SMILES>
CC(P(c1cc2ccccc2c2c1cccc2)c1nc(c(n1c1ccccc1)c1ccccc1)c1ccccc1)(C)C

> <NMREDATA_ASSIGNMENT>
P5, -26.50, 5

> <NMREDATA_1D_31P>
Larmor=162
-26.50, L=P5

$$$$
