
 OpenBabel06112616452D

 23 25  0  0  0  0  0  0  0  0999 V2000
    2.9508    0.5204    0.0000 C   0  0  0  0  0  0  0  0  0  0  0  0
    2.6418   -0.4307    0.0000 C   0  0  0  0  0  0  0  0  0  0  0  0
    2.8497   -1.4089    0.0000 C   0  0  0  0  0  0  0  0  0  0  0  0
    3.5929   -0.7397    0.0000 C   0  0  0  0  0  0  0  0  0  0  0  0
    1.6637   -0.6386    0.0000 P   0  0  0  0  0  0  0  0  0  0  0  0
    1.3546   -1.5897    0.0000 C   0  0  0  0  0  0  0  0  0  0  0  0
    0.6115   -2.2588    0.0000 C   0  0  0  0  0  0  0  0  0  0  0  0
    0.4036   -1.2807    0.0000 C   0  0  0  0  0  0  0  0  0  0  0  0
    2.0238   -2.3328    0.0000 C   0  0  0  0  0  0  0  0  0  0  0  0
    0.9945    0.1045    0.0000 N   0  0  0  0  0  0  0  0  0  0  0  0
    1.2024    1.0827    0.0000 C   0  0  0  0  0  0  0  0  0  0  0  0
    0.3364    1.5827    0.0000 C   0  0  0  0  0  0  0  0  0  0  0  0
    0.3364    2.5827    0.0000 C   0  0  0  0  0  0  0  0  0  0  0  0
    1.2024    3.0827    0.0000 C   0  0  0  0  0  0  0  0  0  0  0  0
    2.0685    2.5827    0.0000 C   0  0  0  0  0  0  0  0  0  0  0  0
    2.0685    1.5827    0.0000 C   0  0  0  0  0  0  0  0  0  0  0  0
    2.9345    1.0827    0.0000 C   0  0  0  0  0  0  0  0  0  0  0  0
    3.0390    0.0882    0.0000 S   0  0  0  0  0  0  0  0  0  0  0  0
    4.0172   -0.1198    0.0000 C   0  0  0  0  0  0  0  0  0  0  0  0
    4.5172    0.7463    0.0000 C   0  0  0  0  0  0  0  0  0  0  0  0
    3.8480    1.4894    0.0000 C   0  0  0  0  0  0  0  0  0  0  0  0
   -0.4067    0.9135    0.0000 C   0  0  0  0  0  0  0  0  0  0  0  0
    0.0000    0.0000    0.0000 C   0  0  0  0  0  0  0  0  0  0  0  0
  1  2  1  0  0  0  0
  2  3  1  0  0  0  0
  2  4  1  0  0  0  0
  2  5  1  0  0  0  0
  5  6  1  0  0  0  0
  5 10  1  0  0  0  0
  6  7  1  0  0  0  0
  6  8  1  0  0  0  0
  6  9  1  0  0  0  0
 10 23  1  0  0  0  0
 10 11  1  0  0  0  0
 11 16  2  0  0  0  0
 11 12  1  0  0  0  0
 12 13  2  0  0  0  0
 12 22  1  0  0  0  0
 13 14  1  0  0  0  0
 14 15  2  0  0  0  0
 15 16  1  0  0  0  0
 16 17  1  0  0  0  0
 17 21  2  0  0  0  0
 17 18  1  0  0  0  0
 18 19  1  0  0  0  0
 19 20  2  0  0  0  0
 20 21  1  0  0  0  0
 22 23  2  0  0  0  0
M  END
> <NMREDATA_VERSION>
1.1

> <NMREDATA_LEVEL>
0

> <NMREDATA_SOLVENT>
CDCl3

> <NMREDATA_FORMULA>
C20H26NPS

> <NMREDATA_SMILES>
CC(P(C(C)(C)C)n1ccc2c1c(ccc2)c1cccs1)(C)C

> <NMREDATA_ASSIGNMENT>
P5, 77.70, 5

> <NMREDATA_1D_31P>
Larmor=162
77.70, L=P5

$$$$
