
 OpenBabel06112616442D

 17 17  0  0  1  0  0  0  0  0999 V2000
    0.8910    1.2071    0.0000 C   0  0  0  0  0  0  0  0  0  0  0  0
    0.0249    0.7071    0.0000 C   0  0  0  0  0  0  0  0  0  0  0  0
   -0.4751   -0.1589    0.0000 C   0  0  0  0  0  0  0  0  0  0  0  0
    0.5249   -0.1589    0.0000 C   0  0  0  0  0  0  0  0  0  0  0  0
   -0.8411    1.2071    0.0000 O   0  0  0  0  0  0  0  0  0  0  0  0
   -1.7071    0.7071    0.0000 C   0  0  0  0  0  0  0  0  0  0  0  0
   -2.5731    1.2071    0.0000 O   0  0  0  0  0  0  0  0  0  0  0  0
   -1.7071   -0.2929    0.0000 N   0  0  0  0  0  0  0  0  0  0  0  0
   -1.0000   -1.0000    0.0000 C   0  0  2  0  0  0  0  0  0  0  0  0
    0.0000   -1.0000    0.0000 P   0  0  0  0  0  0  0  0  0  0  0  0
    0.0000   -2.0000    0.0000 O   0  0  0  0  0  0  0  0  0  0  0  0
    0.8660   -2.5000    0.0000 C   0  0  0  0  0  0  0  0  0  0  0  0
    1.0000   -1.0000    0.0000 O   0  0  0  0  0  0  0  0  0  0  0  0
    1.5000   -1.8660    0.0000 C   0  0  0  0  0  0  0  0  0  0  0  0
    0.0000    0.0000    0.0000 O   0  0  0  0  0  0  0  0  0  0  0  0
   -1.7071   -1.7071    0.0000 C   0  0  0  0  0  0  0  0  0  0  0  0
   -2.4142   -1.0000    0.0000 C   0  0  0  0  0  0  0  0  0  0  0  0
  1  2  1  0  0  0  0
  2  3  1  0  0  0  0
  2  4  1  0  0  0  0
  2  5  1  0  0  0  0
  5  6  1  0  0  0  0
  6  7  2  0  0  0  0
  6  8  1  0  0  0  0
  8 17  1  0  0  0  0
  8  9  1  0  0  0  0
  9 10  1  6  0  0  0
  9 16  1  0  0  0  0
 10 11  1  0  0  0  0
 10 13  1  0  0  0  0
 10 15  2  0  0  0  0
 11 12  1  0  0  0  0
 13 14  1  0  0  0  0
 16 17  1  0  0  0  0
M  END
> <NMREDATA_VERSION>
1.1

> <NMREDATA_LEVEL>
0

> <NMREDATA_SOLVENT>
CDCl3

> <NMREDATA_FORMULA>
C10H20NO5P

> <NMREDATA_SMILES>
COP(=O)([C@@H]1CCN1C(=O)OC(C)(C)C)OC

> <NMREDATA_ASSIGNMENT>
P10, 24.80, 10

> <NMREDATA_1D_31P>
Larmor=162
24.80, L=P10

$$$$
