
 OpenBabel06112616462D

 31 34  0  0  0  0  0  0  0  0999 V2000
   -0.7384    2.2137    0.0000 C   0  0  0  0  0  0  0  0  0  0  0  0
    0.1855    2.5138    0.0000 C   0  0  0  0  0  0  0  0  0  0  0  0
    0.9714    1.9429    0.0000 C   0  0  0  0  0  0  0  0  0  0  0  0
    0.9714    0.0000    0.0000 P   0  0  0  0  0  0  0  0  0  0  0  0
    1.9429    0.0000    0.0000 C   0  0  0  0  0  0  0  0  0  0  0  0
    2.4286   -0.8413    0.0000 C   0  0  0  0  0  0  0  0  0  0  0  0
    3.4000   -0.8413    0.0000 C   0  0  0  0  0  0  0  0  0  0  0  0
    3.8857    0.0000    0.0000 C   0  0  0  0  0  0  0  0  0  0  0  0
    3.4000    0.8413    0.0000 C   0  0  0  0  0  0  0  0  0  0  0  0
    2.4286    0.8413    0.0000 C   0  0  0  0  0  0  0  0  0  0  0  0
    0.9714   -0.9714    0.0000 O   0  0  0  0  0  0  0  0  0  0  0  0
    0.0000    0.0000    0.0000 C   0  0  0  0  0  0  0  0  0  0  0  0
   -0.4857    0.8413    0.0000 C   0  0  0  0  0  0  0  0  0  0  0  0
   -1.4571    0.8413    0.0000 C   0  0  0  0  0  0  0  0  0  0  0  0
   -1.9429    0.0000    0.0000 C   0  0  0  0  0  0  0  0  0  0  0  0
   -1.4571   -0.8413    0.0000 C   0  0  0  0  0  0  0  0  0  0  0  0
   -0.4857   -0.8413    0.0000 C   0  0  0  0  0  0  0  0  0  0  0  0
    1.7573    2.5138    0.0000 C   0  0  0  0  0  0  0  0  0  0  0  0
    2.7075    2.3119    0.0000 C   0  0  0  0  0  0  0  0  0  0  0  0
    3.3575    3.0338    0.0000 C   0  0  0  0  0  0  0  0  0  0  0  0
    4.3077    2.8318    0.0000 O   0  0  0  0  0  0  0  0  0  0  0  0
    4.9578    3.5537    0.0000 C   0  0  0  0  0  0  0  0  0  0  0  0
    3.0574    3.9577    0.0000 C   0  0  0  0  0  0  0  0  0  0  0  0
    2.1072    4.1596    0.0000 C   0  0  0  0  0  0  0  0  0  0  0  0
    1.4571    3.4377    0.0000 C   0  0  0  0  0  0  0  0  0  0  0  0
    0.4857    3.4377    0.0000 N   0  0  0  0  0  0  0  0  0  0  0  0
   -0.0853    4.2236    0.0000 C   0  0  0  0  0  0  0  0  0  0  0  0
   -1.4603    2.8637    0.0000 O   0  0  0  0  0  0  0  0  0  0  0  0
   -2.3842    2.5635    0.0000 C   0  0  0  0  0  0  0  0  0  0  0  0
   -2.5861    1.6133    0.0000 C   0  0  0  0  0  0  0  0  0  0  0  0
   -0.9403    1.2635    0.0000 O   0  0  0  0  0  0  0  0  0  0  0  0
  1  2  1  0  0  0  0
  1 28  1  0  0  0  0
  1 31  2  0  0  0  0
  2 26  1  0  0  0  0
  2  3  2  0  0  0  0
  3  4  1  0  0  0  0
  3 18  1  0  0  0  0
  4  5  1  0  0  0  0
  4 11  2  0  0  0  0
  4 12  1  0  0  0  0
  5 10  2  0  0  0  0
  5  6  1  0  0  0  0
  6  7  2  0  0  0  0
  7  8  1  0  0  0  0
  8  9  2  0  0  0  0
  9 10  1  0  0  0  0
 12 17  2  0  0  0  0
 12 13  1  0  0  0  0
 13 14  2  0  0  0  0
 14 15  1  0  0  0  0
 15 16  2  0  0  0  0
 16 17  1  0  0  0  0
 18 25  2  0  0  0  0
 18 19  1  0  0  0  0
 19 20  2  0  0  0  0
 20 21  1  0  0  0  0
 20 23  1  0  0  0  0
 21 22  1  0  0  0  0
 23 24  2  0  0  0  0
 24 25  1  0  0  0  0
 25 26  1  0  0  0  0
 26 27  1  0  0  0  0
 28 29  1  0  0  0  0
 29 30  1  0  0  0  0
M  END
> <NMREDATA_VERSION>
1.1

> <NMREDATA_LEVEL>
0

> <NMREDATA_SOLVENT>
CDCl3

> <NMREDATA_FORMULA>
C25H24NO4P

> <NMREDATA_SMILES>
CCOC(=O)c1n(C)c2c(c1P(=O)(c1ccccc1)c1ccccc1)cc(cc2)OC

> <NMREDATA_ASSIGNMENT>
P4, 21.25, 4

> <NMREDATA_1D_31P>
Larmor=162
21.25, L=P4

$$$$
