
 OpenBabel06112616452D

 22 25  0  0  0  0  0  0  0  0999 V2000
   -1.7796   -0.0933    0.0000 P   0  0  0  0  0  0  0  0  0  0  0  0
   -2.6456    0.4067    0.0000 C   0  0  0  0  0  0  0  0  0  0  0  0
   -3.5116   -0.0933    0.0000 C   0  0  0  0  0  0  0  0  0  0  0  0
   -4.3776    0.4067    0.0000 C   0  0  0  0  0  0  0  0  0  0  0  0
   -4.3776    1.4067    0.0000 C   0  0  0  0  0  0  0  0  0  0  0  0
   -3.5116    1.9067    0.0000 C   0  0  0  0  0  0  0  0  0  0  0  0
   -2.6456    1.4067    0.0000 C   0  0  0  0  0  0  0  0  0  0  0  0
   -1.7796   -1.0933    0.0000 C   0  0  0  0  0  0  0  0  0  0  0  0
   -0.9135   -1.5933    0.0000 C   0  0  0  0  0  0  0  0  0  0  0  0
   -0.9135   -2.5933    0.0000 C   0  0  0  0  0  0  0  0  0  0  0  0
   -1.7796   -3.0933    0.0000 C   0  0  0  0  0  0  0  0  0  0  0  0
   -2.6456   -2.5933    0.0000 C   0  0  0  0  0  0  0  0  0  0  0  0
   -2.6456   -1.5933    0.0000 C   0  0  0  0  0  0  0  0  0  0  0  0
   -0.9135    0.4067    0.0000 C   0  0  0  0  0  0  0  0  0  0  0  0
   -0.8090    1.4013    0.0000 N   0  0  0  0  0  0  0  0  0  0  0  0
    0.1691    1.6092    0.0000 C   0  0  0  0  0  0  0  0  0  0  0  0
    0.6691    2.4752    0.0000 C   0  0  0  0  0  0  0  0  0  0  0  0
    1.6691    2.4752    0.0000 C   0  0  0  0  0  0  0  0  0  0  0  0
    2.1691    1.6092    0.0000 C   0  0  0  0  0  0  0  0  0  0  0  0
    1.6691    0.7431    0.0000 C   0  0  0  0  0  0  0  0  0  0  0  0
    0.6691    0.7431    0.0000 C   0  0  0  0  0  0  0  0  0  0  0  0
    0.0000    0.0000    0.0000 O   0  0  0  0  0  0  0  0  0  0  0  0
  1  2  1  0  0  0  0
  1  8  1  0  0  0  0
  1 14  1  0  0  0  0
  2  7  2  0  0  0  0
  2  3  1  0  0  0  0
  3  4  2  0  0  0  0
  4  5  1  0  0  0  0
  5  6  2  0  0  0  0
  6  7  1  0  0  0  0
  8 13  2  0  0  0  0
  8  9  1  0  0  0  0
  9 10  2  0  0  0  0
 10 11  1  0  0  0  0
 11 12  2  0  0  0  0
 12 13  1  0  0  0  0
 14 22  1  0  0  0  0
 14 15  2  0  0  0  0
 15 16  1  0  0  0  0
 16 21  2  0  0  0  0
 16 17  1  0  0  0  0
 17 18  2  0  0  0  0
 18 19  1  0  0  0  0
 19 20  2  0  0  0  0
 20 21  1  0  0  0  0
 21 22  1  0  0  0  0
M  END
> <NMREDATA_VERSION>
1.1

> <NMREDATA_LEVEL>
0

> <NMREDATA_SOLVENT>
CDCl3

> <NMREDATA_FORMULA>
C19H14NOP

> <NMREDATA_SMILES>
c1ccc(cc1)P(c1nc2c(o1)cccc2)c1ccccc1

> <NMREDATA_ASSIGNMENT>
P1, -17.26, 1

> <NMREDATA_1D_31P>
Larmor=243
-17.26, L=P1

$$$$
