
 OpenBabel06112616422D

 39 44  0  0  0  0  0  0  0  0999 V2000
   -2.6313    1.0984    0.0000 C    0  0  0  0  0  0  0  0  0  0  0  0
   -2.4088    0.1235    0.0000 N    0  0  0  0  0  0  0  0  0  0  0  0
   -1.4339   -0.0990    0.0000 C    0  0  0  0  0  0  0  0  0  0  0  0
   -1.0000   -1.0000    0.0000 C    0  0  0  0  0  0  0  0  0  0  0  0
    0.0000   -1.0000    0.0000 P    0  0  0  0  0  0  0  0  0  0  0  0
    0.0000   -2.0000    0.0000 O    0  0  0  0  0  0  0  0  0  0  0  0
    1.0000   -1.0000    0.0000 C    0  0  0  0  0  0  0  0  0  0  0  0
    1.5000   -0.1340    0.0000 C    0  0  0  0  0  0  0  0  0  0  0  0
    2.5000   -0.1340    0.0000 C    0  0  0  0  0  0  0  0  0  0  0  0
    3.0000   -1.0000    0.0000 C    0  0  0  0  0  0  0  0  0  0  0  0
    4.0000   -1.0000    0.0000 Cl   0  0  0  0  0  0  0  0  0  0  0  0
    2.5000   -1.8660    0.0000 C    0  0  0  0  0  0  0  0  0  0  0  0
    1.5000   -1.8660    0.0000 C    0  0  0  0  0  0  0  0  0  0  0  0
    0.0000    0.0000    0.0000 C    0  0  0  0  0  0  0  0  0  0  0  0
   -0.8660    0.5000    0.0000 C    0  0  0  0  0  0  0  0  0  0  0  0
   -0.8660    1.5000    0.0000 C    0  0  0  0  0  0  0  0  0  0  0  0
    0.0000    2.0000    0.0000 C    0  0  0  0  0  0  0  0  0  0  0  0
    0.0000    3.0000    0.0000 Cl   0  0  0  0  0  0  0  0  0  0  0  0
    0.8660    1.5000    0.0000 C    0  0  0  0  0  0  0  0  0  0  0  0
    0.8660    0.5000    0.0000 C    0  0  0  0  0  0  0  0  0  0  0  0
   -1.4339   -1.9010    0.0000 C    0  0  0  0  0  0  0  0  0  0  0  0
   -0.8104   -2.6828    0.0000 C    0  0  0  0  0  0  0  0  0  0  0  0
   -1.1757   -3.6137    0.0000 C    0  0  0  0  0  0  0  0  0  0  0  0
   -0.5522   -4.3955    0.0000 C    0  0  0  0  0  0  0  0  0  0  0  0
    0.4366   -4.2465    0.0000 C    0  0  0  0  0  0  0  0  0  0  0  0
    0.8019   -3.3156    0.0000 C    0  0  0  0  0  0  0  0  0  0  0  0
    0.1784   -2.5338    0.0000 C    0  0  0  0  0  0  0  0  0  0  0  0
   -2.4088   -2.1235    0.0000 C    0  0  0  0  0  0  0  0  0  0  0  0
   -3.1906   -1.5000    0.0000 C    0  0  0  0  0  0  0  0  0  0  0  0
   -4.0252   -2.0509    0.0000 C    0  0  0  0  0  0  0  0  0  0  0  0
   -4.9931   -1.7993    0.0000 C    0  0  0  0  0  0  0  0  0  0  0  0
   -5.6948   -2.5117    0.0000 C    0  0  0  0  0  0  0  0  0  0  0  0
   -5.4288   -3.4756    0.0000 C    0  0  0  0  0  0  0  0  0  0  0  0
   -4.4610   -3.7272    0.0000 C    0  0  0  0  0  0  0  0  0  0  0  0
   -3.7592   -3.0149    0.0000 C    0  0  0  0  0  0  0  0  0  0  0  0
   -2.7602   -3.0597    0.0000 N    0  0  0  0  0  0  0  0  0  0  0  0
   -2.2093   -3.8943    0.0000 C    0  0  0  0  0  0  0  0  0  0  0  0
   -3.1906   -0.5000    0.0000 C    0  0  0  0  0  0  0  0  0  0  0  0
   -4.0916   -0.0661    0.0000 O    0  0  0  0  0  0  0  0  0  0  0  0
  1  2  1  0  0  0  0
  2 38  1  0  0  0  0
  2  3  1  0  0  0  0
  3  4  1  0  0  0  0
  4  5  1  0  0  0  0
  4 21  2  0  0  0  0
  5  6  2  0  0  0  0
  5  7  1  0  0  0  0
  5 14  1  0  0  0  0
  7 13  2  0  0  0  0
  7  8  1  0  0  0  0
  8  9  2  0  0  0  0
  9 10  1  0  0  0  0
 10 11  1  0  0  0  0
 10 12  2  0  0  0  0
 12 13  1  0  0  0  0
 14 20  2  0  0  0  0
 14 15  1  0  0  0  0
 15 16  2  0  0  0  0
 16 17  1  0  0  0  0
 17 18  1  0  0  0  0
 17 19  2  0  0  0  0
 19 20  1  0  0  0  0
 21 22  1  0  0  0  0
 21 28  1  0  0  0  0
 22 27  2  0  0  0  0
 22 23  1  0  0  0  0
 23 24  2  0  0  0  0
 24 25  1  0  0  0  0
 25 26  2  0  0  0  0
 26 27  1  0  0  0  0
 28 36  1  0  0  0  0
 28 29  2  0  0  0  0
 29 30  1  0  0  0  0
 29 38  1  0  0  0  0
 30 35  2  0  0  0  0
 30 31  1  0  0  0  0
 31 32  2  0  0  0  0
 32 33  1  0  0  0  0
 33 34  2  0  0  0  0
 34 35  1  0  0  0  0
 35 36  1  0  0  0  0
 36 37  1  0  0  0  0
 38 39  2  0  0  0  0
M  END
> <NMREDATA_VERSION>
1.1

> <NMREDATA_LEVEL>
0

> <NMREDATA_SOLVENT>
CDCl3

> <NMREDATA_FORMULA>
C32H25Cl2N2O2P

> <NMREDATA_SMILES>
Clc1ccc(cc1)P(=O)(C1=C(c2ccccc2)c2c(C(=O)N(C1)C)c1c(n2C)cccc1)c1ccc(cc1)Cl

> <NMREDATA_ASSIGNMENT>
P5, 26.50, 5

> <NMREDATA_1D_31P>
Larmor=162
26.50, L=P5

$$$$
