
 OpenBabel06112616442D

 36 41  0  0  1  0  0  0  0  0999 V2000
   -5.5777    2.7947    0.0000 C   0  0  0  0  0  0  0  0  0  0  0  0
   -4.9378    2.0842    0.0000 C   0  0  0  0  0  0  0  0  0  0  0  0
   -5.2331    1.1748    0.0000 C   0  0  0  0  0  0  0  0  0  0  0  0
   -4.5932    0.4643    0.0000 C   0  0  1  0  0  0  0  0  0  0  0  0
   -4.8885   -0.4452    0.0000 C   0  0  0  0  0  0  0  0  0  0  0  0
   -4.2486   -1.1557    0.0000 C   0  0  0  0  0  0  0  0  0  0  0  0
   -3.3133   -0.9567    0.0000 C   0  0  2  0  0  0  0  0  0  0  0  0
   -2.4851   -1.4347    0.0000 C   0  0  0  0  0  0  0  0  0  0  0  0
   -2.4850   -2.3915    0.0000 C   0  0  0  0  0  0  0  0  0  0  0  0
   -1.6569   -2.8695    0.0000 C   0  0  0  0  0  0  0  0  0  0  0  0
   -0.8284   -2.3912    0.0000 C   0  0  0  0  0  0  0  0  0  0  0  0
    0.8282   -2.3910    0.0000 C   0  0  0  0  0  0  0  0  0  0  0  0
    1.6569   -2.8691    0.0000 C   0  0  0  0  0  0  0  0  0  0  0  0
    2.4849   -2.3908    0.0000 C   0  0  0  0  0  0  0  0  0  0  0  0
    2.4847   -1.4340    0.0000 C   0  0  0  0  0  0  0  0  0  0  0  0
    1.6566   -0.9560    0.0000 C   0  0  0  0  0  0  0  0  0  0  0  0
    0.8281   -1.4342    0.0000 C   0  0  0  0  0  0  0  0  0  0  0  0
    0.0000   -0.9562    0.0000 N   0  0  0  0  0  0  0  0  0  0  0  0
    0.0000    0.0000    0.0000 P   0  0  0  0  0  0  0  0  0  0  0  0
   -0.9510    0.0999    0.0000 O   0  0  0  0  0  0  0  0  0  0  0  0
    0.0999    0.9510    0.0000 C   0  0  0  0  0  0  0  0  0  0  0  0
    0.9735    1.3399    0.0000 C   0  0  0  0  0  0  0  0  0  0  0  0
    1.0734    2.2908    0.0000 C   0  0  0  0  0  0  0  0  0  0  0  0
    0.2998    2.8529    0.0000 C   0  0  0  0  0  0  0  0  0  0  0  0
   -0.5737    2.4640    0.0000 C   0  0  0  0  0  0  0  0  0  0  0  0
   -0.6736    1.5130    0.0000 C   0  0  0  0  0  0  0  0  0  0  0  0
    1.9019   -0.1999    0.0000 C   0  0  0  0  0  0  0  0  0  0  0  0
    2.4640    0.5737    0.0000 C   0  0  0  0  0  0  0  0  0  0  0  0
    3.4149    0.4737    0.0000 C   0  0  0  0  0  0  0  0  0  0  0  0
    3.8038   -0.3998    0.0000 C   0  0  0  0  0  0  0  0  0  0  0  0
    3.2418   -1.1734    0.0000 C   0  0  0  0  0  0  0  0  0  0  0  0
    2.9255   -0.1999    0.0000 C   0  0  0  0  0  0  0  0  0  0  0  0
   -0.8285   -1.4345    0.0000 C   0  0  0  0  0  0  0  0  0  0  0  0
   -1.6571   -0.9564    0.0000 C   0  0  0  0  0  0  0  0  0  0  0  0
   -3.0179   -0.0473    0.0000 C   0  0  0  0  0  0  0  0  0  0  0  0
   -3.6579    0.6632    0.0000 C   0  0  0  0  0  0  0  0  0  0  0  0
  1  2  1  0  0  0  0
  2  3  1  0  0  0  0
  4  3  1  6  0  0  0
  4  5  1  0  0  0  0
  4 36  1  0  0  0  0
  5  6  1  0  0  0  0
  6  7  1  0  0  0  0
  7  8  1  1  0  0  0
  7 35  1  0  0  0  0
  8 34  2  0  0  0  0
  8  9  1  0  0  0  0
  9 10  2  0  0  0  0
 10 11  1  0  0  0  0
 11 33  2  0  0  0  0
 11 12  1  0  0  0  0
 12 17  2  0  0  0  0
 12 13  1  0  0  0  0
 13 14  2  0  0  0  0
 14 15  1  0  0  0  0
 15 16  2  0  0  0  0
 16 17  1  0  0  0  0
 17 18  1  0  0  0  0
 18 19  1  0  0  0  0
 18 33  1  0  0  0  0
 19 20  2  0  0  0  0
 19 21  1  0  0  0  0
 19 27  1  0  0  0  0
 21 26  2  0  0  0  0
 21 22  1  0  0  0  0
 22 23  2  0  0  0  0
 23 24  1  0  0  0  0
 24 25  2  0  0  0  0
 25 26  1  0  0  0  0
 27 32  2  0  0  0  0
 27 28  1  0  0  0  0
 28 29  2  0  0  0  0
 29 30  1  0  0  0  0
 30 31  2  0  0  0  0
 31 32  1  0  0  0  0
 33 34  1  0  0  0  0
 35 36  1  0  0  0  0
M  END
> <NMREDATA_VERSION>
1.1

> <NMREDATA_LEVEL>
0

> <NMREDATA_SOLVENT>
CDCl3

> <NMREDATA_FORMULA>
C33H34NOP

> <NMREDATA_SMILES>
CCC[C@@H]1CC[C@H](CC1)c1ccc2c(c1)n(c1c2cccc1)P(=O)(c1ccccc1)c1ccccc1

> <NMREDATA_ASSIGNMENT>
P19, 25.74, 19

> <NMREDATA_1D_31P>
Larmor=162
25.74, L=P19

$$$$
