
 OpenBabel06112616482D

 29 29  0  0  1  0  0  0  0  0999 V2000
    0.1340    3.5000    0.0000 C   0  0  0  0  0  0  0  0  0  0  0  0
    0.1340    2.5000    0.0000 C   0  0  0  0  0  0  0  0  0  0  0  0
    1.0000    2.0000    0.0000 C   0  0  0  0  0  0  0  0  0  0  0  0
    1.0000    1.0000    0.0000 C   0  0  3  0  0  0  0  0  0  0  0  0
    2.0000    1.0000    0.0000 N   0  0  0  0  0  0  0  0  0  0  0  0
    1.0000    0.0000    0.0000 P   0  0  0  0  0  0  0  0  0  0  0  0
    2.0000    0.0000    0.0000 O   0  0  0  0  0  0  0  0  0  0  0  0
    1.0000   -1.0000    0.0000 O   0  0  0  0  0  0  0  0  0  0  0  0
    1.8660   -1.5000    0.0000 C   0  0  0  0  0  0  0  0  0  0  0  0
    1.8660   -2.5000    0.0000 C   0  0  0  0  0  0  0  0  0  0  0  0
    0.0000    0.0000    0.0000 O   0  0  0  0  0  0  0  0  0  0  0  0
   -0.5000   -0.8660    0.0000 C   0  0  0  0  0  0  0  0  0  0  0  0
    0.0000   -1.7321    0.0000 C   0  0  0  0  0  0  0  0  0  0  0  0
    0.0000    1.0000    0.0000 C   0  0  0  0  0  0  0  0  0  0  0  0
   -0.5000    1.8660    0.0000 C   0  0  0  0  0  0  0  0  0  0  0  0
   -1.5000    1.8660    0.0000 C   0  0  0  0  0  0  0  0  0  0  0  0
   -2.0000    1.0000    0.0000 C   0  0  0  0  0  0  0  0  0  0  0  0
   -3.0000    1.0000    0.0000 S   0  0  0  0  0  0  0  0  0  0  0  0
   -3.0000    0.0000    0.0000 O   0  0  0  0  0  0  0  0  0  0  0  0
   -4.0000    1.0000    0.0000 O   0  0  0  0  0  0  0  0  0  0  0  0
   -3.0000    2.0000    0.0000 N   0  0  0  0  0  0  0  0  0  0  0  0
   -3.8660    2.5000    0.0000 C   0  0  0  0  0  0  0  0  0  0  0  0
   -4.7321    2.0000    0.0000 C   0  0  0  0  0  0  0  0  0  0  0  0
   -4.7321    1.0000    0.0000 C   0  0  0  0  0  0  0  0  0  0  0  0
   -2.1340    2.5000    0.0000 C   0  0  0  0  0  0  0  0  0  0  0  0
   -2.1340    3.5000    0.0000 C   0  0  0  0  0  0  0  0  0  0  0  0
   -3.0000    4.0000    0.0000 C   0  0  0  0  0  0  0  0  0  0  0  0
   -1.5000    0.1340    0.0000 C   0  0  0  0  0  0  0  0  0  0  0  0
   -0.5000    0.1340    0.0000 C   0  0  0  0  0  0  0  0  0  0  0  0
  1  2  2  0  0  0  0
  2  3  1  0  0  0  0
  3  4  1  0  0  0  0
  4  5  1  0  0  0  0
  4  6  1  0  0  0  0
  4 14  1  0  0  0  0
  6  7  2  0  0  0  0
  6  8  1  0  0  0  0
  6 11  1  0  0  0  0
  8  9  1  0  0  0  0
  9 10  1  0  0  0  0
 11 12  1  0  0  0  0
 12 13  1  0  0  0  0
 14 29  2  0  0  0  0
 14 15  1  0  0  0  0
 15 16  2  0  0  0  0
 16 17  1  0  0  0  0
 17 18  1  0  0  0  0
 17 28  2  0  0  0  0
 18 19  2  0  0  0  0
 18 20  2  0  0  0  0
 18 21  1  0  0  0  0
 21 22  1  0  0  0  0
 21 25  1  0  0  0  0
 22 23  1  0  0  0  0
 23 24  1  0  0  0  0
 25 26  1  0  0  0  0
 26 27  1  0  0  0  0
 28 29  1  0  0  0  0
M  END
> <NMREDATA_VERSION>
1.1

> <NMREDATA_LEVEL>
0

> <NMREDATA_SOLVENT>
CDCl3

> <NMREDATA_FORMULA>
C20H35N2O5PS

> <NMREDATA_SMILES>
CCCN(S(=O)(=O)c1ccc(cc1)C(P(=O)(OCC)OCC)(CC=C)N)CCC

> <NMREDATA_ASSIGNMENT>
P6, 25.42, 6

> <NMREDATA_1D_31P>
Larmor=202
25.42, L=P6

$$$$
