
 OpenBabel06112616432D

 38 40  0  0  0  0  0  0  0  0999 V2000
    5.3659    3.2489    0.0000 C    0  0  0  0  0  0  0  0  0  0  0  0
    4.3902    3.2489    0.0000 O    0  0  0  0  0  0  0  0  0  0  0  0
    3.9024    2.4040    0.0000 C    0  0  0  0  0  0  0  0  0  0  0  0
    4.3902    1.5591    0.0000 C    0  0  0  0  0  0  0  0  0  0  0  0
    3.9024    0.7142    0.0000 C    0  0  0  0  0  0  0  0  0  0  0  0
    2.9268    0.7142    0.0000 C    0  0  0  0  0  0  0  0  0  0  0  0
    2.4390   -0.1307    0.0000 C    0  0  0  0  0  0  0  0  0  0  0  0
    1.4634   -0.1307    0.0000 C    0  0  0  0  0  0  0  0  0  0  0  0
    0.9756   -0.9756    0.0000 C    0  0  0  0  0  0  0  0  0  0  0  0
    0.0000   -0.9756    0.0000 P    0  0  0  0  0  0  0  0  0  0  0  0
    0.0000   -1.9512    0.0000 O    0  0  0  0  0  0  0  0  0  0  0  0
   -0.9756   -0.9756    0.0000 C    0  0  0  0  0  0  0  0  0  0  0  0
   -1.4634   -0.1307    0.0000 C    0  0  0  0  0  0  0  0  0  0  0  0
   -2.4390   -0.1307    0.0000 C    0  0  0  0  0  0  0  0  0  0  0  0
   -2.9268   -0.9756    0.0000 C    0  0  0  0  0  0  0  0  0  0  0  0
   -2.4390   -1.8205    0.0000 C    0  0  0  0  0  0  0  0  0  0  0  0
   -1.4634   -1.8205    0.0000 C    0  0  0  0  0  0  0  0  0  0  0  0
    0.0000    0.0000    0.0000 C    0  0  0  0  0  0  0  0  0  0  0  0
    0.8449    0.4878    0.0000 C    0  0  0  0  0  0  0  0  0  0  0  0
    0.8449    1.4634    0.0000 C    0  0  0  0  0  0  0  0  0  0  0  0
    0.0000    1.9512    0.0000 C    0  0  0  0  0  0  0  0  0  0  0  0
   -0.8449    1.4634    0.0000 C    0  0  0  0  0  0  0  0  0  0  0  0
   -0.8449    0.4878    0.0000 C    0  0  0  0  0  0  0  0  0  0  0  0
    3.4146   -1.8205    0.0000 O    0  0  0  0  0  0  0  0  0  0  0  0
    2.9268   -2.6654    0.0000 Si   0  0  0  0  0  0  0  0  0  0  0  0
    2.0819   -2.1776    0.0000 C    0  0  0  0  0  0  0  0  0  0  0  0
    2.0819   -1.2020    0.0000 C    0  0  0  0  0  0  0  0  0  0  0  0
    1.2370   -2.6654    0.0000 C    0  0  0  0  0  0  0  0  0  0  0  0
    2.4390   -3.5103    0.0000 C    0  0  0  0  0  0  0  0  0  0  0  0
    1.4634   -3.5103    0.0000 C    0  0  0  0  0  0  0  0  0  0  0  0
    2.9268   -4.3552    0.0000 C    0  0  0  0  0  0  0  0  0  0  0  0
    3.7717   -3.1532    0.0000 C    0  0  0  0  0  0  0  0  0  0  0  0
    3.7717   -4.1288    0.0000 C    0  0  0  0  0  0  0  0  0  0  0  0
    4.6166   -2.6654    0.0000 C    0  0  0  0  0  0  0  0  0  0  0  0
    2.4390    1.5591    0.0000 C    0  0  0  0  0  0  0  0  0  0  0  0
    2.9268    2.4040    0.0000 C    0  0  0  0  0  0  0  0  0  0  0  0
    2.4390    3.2489    0.0000 O    0  0  0  0  0  0  0  0  0  0  0  0
    1.4634    3.2489    0.0000 C    0  0  0  0  0  0  0  0  0  0  0  0
  1  2  1  0  0  0  0
  2  3  1  0  0  0  0
  3 36  2  0  0  0  0
  3  4  1  0  0  0  0
  4  5  2  0  0  0  0
  5  6  1  0  0  0  0
  6  7  1  0  0  0  0
  6 35  2  0  0  0  0
  7  8  2  0  0  0  0
  7 24  1  0  0  0  0
  8  9  1  0  0  0  0
  9 10  1  0  0  0  0
 10 11  2  0  0  0  0
 10 12  1  0  0  0  0
 10 18  1  0  0  0  0
 12 17  2  0  0  0  0
 12 13  1  0  0  0  0
 13 14  2  0  0  0  0
 14 15  1  0  0  0  0
 15 16  2  0  0  0  0
 16 17  1  0  0  0  0
 18 23  2  0  0  0  0
 18 19  1  0  0  0  0
 19 20  2  0  0  0  0
 20 21  1  0  0  0  0
 21 22  2  0  0  0  0
 22 23  1  0  0  0  0
 24 25  1  0  0  0  0
 25 26  1  0  0  0  0
 25 29  1  0  0  0  0
 25 32  1  0  0  0  0
 26 27  1  0  0  0  0
 26 28  1  0  0  0  0
 29 30  1  0  0  0  0
 29 31  1  0  0  0  0
 32 33  1  0  0  0  0
 32 34  1  0  0  0  0
 35 36  1  0  0  0  0
 36 37  1  0  0  0  0
 37 38  1  0  0  0  0
M  END
> <NMREDATA_VERSION>
1.1

> <NMREDATA_LEVEL>
0

> <NMREDATA_SOLVENT>
CDCl3

> <NMREDATA_FORMULA>
C32H43O4PSi

> <NMREDATA_SMILES>
COc1cc(ccc1OC)/C(=C/CP(=O)(c1ccccc1)c1ccccc1)/O[Si](C(C)C)(C(C)C)C(C)C

> <NMREDATA_ASSIGNMENT>
P10, 31.20, 10

> <NMREDATA_1D_31P>
Larmor=202
31.20, L=P10

$$$$
