
 OpenBabel06112616432D

 23 25  0  0  0  0  0  0  0  0999 V2000
    -4.500    -0.134     0.000 O   0  0  0  0  0  0  0  0  0  0  0  0
    -4.000    -1.000     0.000 C   0  0  0  0  0  0  0  0  0  0  0  0
    -4.500    -1.866     0.000 O   0  0  0  0  0  0  0  0  0  0  0  0
    -3.000    -1.000     0.000 C   0  0  0  0  0  0  0  0  0  0  0  0
    -2.500    -0.134     0.000 C   0  0  0  0  0  0  0  0  0  0  0  0
    -1.500    -0.134     0.000 C   0  0  0  0  0  0  0  0  0  0  0  0
    -1.000    -1.000     0.000 C   0  0  0  0  0  0  0  0  0  0  0  0
     0.000    -1.000     0.000 P   0  0  0  0  0  0  0  0  0  0  0  0
     0.000    -2.000     0.000 O   0  0  0  0  0  0  0  0  0  0  0  0
     1.000    -1.000     0.000 C   0  0  0  0  0  0  0  0  0  0  0  0
     1.500    -0.134     0.000 C   0  0  0  0  0  0  0  0  0  0  0  0
     2.500    -0.134     0.000 C   0  0  0  0  0  0  0  0  0  0  0  0
     3.000    -1.000     0.000 C   0  0  0  0  0  0  0  0  0  0  0  0
     2.500    -1.866     0.000 C   0  0  0  0  0  0  0  0  0  0  0  0
     1.500    -1.866     0.000 C   0  0  0  0  0  0  0  0  0  0  0  0
     0.000     0.000     0.000 C   0  0  0  0  0  0  0  0  0  0  0  0
    -0.866     0.500     0.000 C   0  0  0  0  0  0  0  0  0  0  0  0
    -0.866     1.500     0.000 C   0  0  0  0  0  0  0  0  0  0  0  0
     0.000     2.000     0.000 C   0  0  0  0  0  0  0  0  0  0  0  0
     0.866     1.500     0.000 C   0  0  0  0  0  0  0  0  0  0  0  0
     0.866     0.500     0.000 C   0  0  0  0  0  0  0  0  0  0  0  0
    -1.500    -1.866     0.000 C   0  0  0  0  0  0  0  0  0  0  0  0
    -2.500    -1.866     0.000 C   0  0  0  0  0  0  0  0  0  0  0  0
  1  2  2  0  0  0  0
  2  3  1  0  0  0  0
  2  4  1  0  0  0  0
  4 23  2  0  0  0  0
  4  5  1  0  0  0  0
  5  6  2  0  0  0  0
  6  7  1  0  0  0  0
  7  8  1  0  0  0  0
  7 22  2  0  0  0  0
  8  9  2  0  0  0  0
  8 10  1  0  0  0  0
  8 16  1  0  0  0  0
 10 15  2  0  0  0  0
 10 11  1  0  0  0  0
 11 12  2  0  0  0  0
 12 13  1  0  0  0  0
 13 14  2  0  0  0  0
 14 15  1  0  0  0  0
 16 21  2  0  0  0  0
 16 17  1  0  0  0  0
 17 18  2  0  0  0  0
 18 19  1  0  0  0  0
 19 20  2  0  0  0  0
 20 21  1  0  0  0  0
 22 23  1  0  0  0  0
M  END
> <NMREDATA_VERSION>
1.1

> <NMREDATA_LEVEL>
0

> <NMREDATA_SOLVENT>
DMSO-d6

> <NMREDATA_FORMULA>
C19H15O3P

> <NMREDATA_SMILES>
OC(=O)c1ccc(cc1)P(=O)(c1ccccc1)c1ccccc1

> <NMREDATA_ASSIGNMENT>
P8, 26.40, 8

> <NMREDATA_1D_31P>
Larmor=202
26.40, L=P8

$$$$
