
 OpenBabel06112616462D

 25 27  0  0  0  0  0  0  0  0999 V2000
   -2.6433   -0.2255    0.0000 C   0  0  0  0  0  0  0  0  0  0  0  0
   -2.8929    0.7059    0.0000 C   0  0  0  0  0  0  0  0  0  0  0  0
   -3.8489    0.8318    0.0000 C   0  0  0  0  0  0  0  0  0  0  0  0
   -3.3750    1.5410    0.0000 C   0  0  0  0  0  0  0  0  0  0  0  0
   -2.8929    2.3761    0.0000 C   0  0  0  0  0  0  0  0  0  0  0  0
   -1.9286    2.3761    0.0000 C   0  0  0  0  0  0  0  0  0  0  0  0
   -1.4464    1.5410    0.0000 C   0  0  0  0  0  0  0  0  0  0  0  0
   -0.6113    1.0589    0.0000 C   0  0  0  0  0  0  0  0  0  0  0  0
   -0.6113    2.0231    0.0000 C   0  0  0  0  0  0  0  0  0  0  0  0
   -1.9286    0.7059    0.0000 N   0  0  0  0  0  0  0  0  0  0  0  0
   -0.9643   -0.9643    0.0000 O   0  0  0  0  0  0  0  0  0  0  0  0
    0.0000   -0.9643    0.0000 P   0  0  0  0  0  0  0  0  0  0  0  0
    0.0000   -1.9286    0.0000 C   0  0  0  0  0  0  0  0  0  0  0  0
    0.8351   -2.4107    0.0000 C   0  0  0  0  0  0  0  0  0  0  0  0
    0.8351   -3.3750    0.0000 C   0  0  0  0  0  0  0  0  0  0  0  0
    0.0000   -3.8571    0.0000 C   0  0  0  0  0  0  0  0  0  0  0  0
   -0.8351   -3.3750    0.0000 C   0  0  0  0  0  0  0  0  0  0  0  0
   -0.8351   -2.4107    0.0000 C   0  0  0  0  0  0  0  0  0  0  0  0
    0.9643   -0.9643    0.0000 C   0  0  0  0  0  0  0  0  0  0  0  0
    1.4464   -0.1292    0.0000 C   0  0  0  0  0  0  0  0  0  0  0  0
    2.4107   -0.1292    0.0000 C   0  0  0  0  0  0  0  0  0  0  0  0
    2.8929   -0.9643    0.0000 C   0  0  0  0  0  0  0  0  0  0  0  0
    2.4107   -1.7994    0.0000 C   0  0  0  0  0  0  0  0  0  0  0  0
    1.4464   -1.7994    0.0000 C   0  0  0  0  0  0  0  0  0  0  0  0
    0.0000    0.0000    0.0000 O   0  0  0  0  0  0  0  0  0  0  0  0
  1  2  1  0  0  0  0
  2 10  1  0  0  0  0
  2  3  1  0  0  0  0
  2  4  1  0  0  0  0
  4  5  1  0  0  0  0
  5  6  1  0  0  0  0
  6  7  1  0  0  0  0
  7  8  1  0  0  0  0
  7  9  1  0  0  0  0
  7 10  1  0  0  0  0
 10 11  1  0  0  0  0
 11 12  1  0  0  0  0
 12 13  1  0  0  0  0
 12 19  1  0  0  0  0
 12 25  2  0  0  0  0
 13 18  2  0  0  0  0
 13 14  1  0  0  0  0
 14 15  2  0  0  0  0
 15 16  1  0  0  0  0
 16 17  2  0  0  0  0
 17 18  1  0  0  0  0
 19 24  2  0  0  0  0
 19 20  1  0  0  0  0
 20 21  2  0  0  0  0
 21 22  1  0  0  0  0
 22 23  2  0  0  0  0
 23 24  1  0  0  0  0
M  END
> <NMREDATA_VERSION>
1.1

> <NMREDATA_LEVEL>
0

> <NMREDATA_SOLVENT>
CDCl3

> <NMREDATA_FORMULA>
C21H28NO2P

> <NMREDATA_SMILES>
CC1(C)CCCC(N1OP(=O)(c1ccccc1)c1ccccc1)(C)C

> <NMREDATA_ASSIGNMENT>
P12, 33.46, 12

> <NMREDATA_1D_31P>
Larmor=162
33.46, L=P12

$$$$
