
 OpenBabel06112616442D

 32 36  0  0  0  0  0  0  0  0999 V2000
    0.6510    0.7231    0.0000 C   0  0  0  0  0  0  0  0  0  0  0  0
    0.3504    1.6484    0.0000 C   0  0  0  0  0  0  0  0  0  0  0  0
    0.9223    2.4356    0.0000 C   0  0  0  0  0  0  0  0  0  0  0  0
    2.8682    2.4356    0.0000 C   0  0  0  0  0  0  0  0  0  0  0  0
    3.3547    3.2782    0.0000 O   0  0  0  0  0  0  0  0  0  0  0  0
    3.3547    1.5929    0.0000 N   0  0  0  0  0  0  0  0  0  0  0  0
    4.3277    1.5929    0.0000 C   0  0  0  0  0  0  0  0  0  0  0  0
    4.8142    2.4356    0.0000 C   0  0  0  0  0  0  0  0  0  0  0  0
    5.7871    2.4356    0.0000 C   0  0  0  0  0  0  0  0  0  0  0  0
    6.2736    1.5929    0.0000 C   0  0  0  0  0  0  0  0  0  0  0  0
    7.2466    1.5929    0.0000 C   0  0  0  0  0  0  0  0  0  0  0  0
    5.7871    0.7503    0.0000 C   0  0  0  0  0  0  0  0  0  0  0  0
    4.8142    0.7503    0.0000 C   0  0  0  0  0  0  0  0  0  0  0  0
    0.3504    3.2227    0.0000 P   0  0  3  0  0  0  0  0  0  0  0  0
    0.1481    4.1744    0.0000 O   0  0  0  0  0  0  0  0  0  0  0  0
    1.0734    3.8738    0.0000 C   0  0  0  0  0  0  0  0  0  0  0  0
    1.9988    3.5731    0.0000 C   0  0  0  0  0  0  0  0  0  0  0  0
    2.7219    4.2241    0.0000 C   0  0  0  0  0  0  0  0  0  0  0  0
    2.5196    5.1759    0.0000 C   0  0  0  0  0  0  0  0  0  0  0  0
    1.5942    5.4765    0.0000 C   0  0  0  0  0  0  0  0  0  0  0  0
    0.8711    4.8255    0.0000 C   0  0  0  0  0  0  0  0  0  0  0  0
   -0.5750    2.9221    0.0000 C   0  0  0  0  0  0  0  0  0  0  0  0
   -1.4176    3.4085    0.0000 C   0  0  0  0  0  0  0  0  0  0  0  0
   -2.2602    2.9221    0.0000 C   0  0  0  0  0  0  0  0  0  0  0  0
   -2.2602    1.9491    0.0000 C   0  0  0  0  0  0  0  0  0  0  0  0
   -1.4176    1.4626    0.0000 C   0  0  0  0  0  0  0  0  0  0  0  0
   -0.5750    1.9491    0.0000 C   0  0  0  0  0  0  0  0  0  0  0  0
    1.6028    0.5208    0.0000 C   0  0  0  0  0  0  0  0  0  0  0  0
    1.9034   -0.4046    0.0000 C   0  0  0  0  0  0  0  0  0  0  0  0
    1.2524   -1.1276    0.0000 C   0  0  0  0  0  0  0  0  0  0  0  0
    0.3007   -0.9254    0.0000 C   0  0  0  0  0  0  0  0  0  0  0  0
    0.0000    0.0000    0.0000 C   0  0  0  0  0  0  0  0  0  0  0  0
  1 32  2  0  0  0  0
  1  2  1  0  0  0  0
  1 28  1  0  0  0  0
  2 27  1  0  0  0  0
  2  3  2  0  0  0  0
  3  4  1  0  0  0  0
  3 14  1  0  0  0  0
  4  5  2  0  0  0  0
  4  6  1  0  0  0  0
  6  7  1  0  0  0  0
  7 13  2  0  0  0  0
  7  8  1  0  0  0  0
  8  9  2  0  0  0  0
  9 10  1  0  0  0  0
 10 11  1  0  0  0  0
 10 12  2  0  0  0  0
 12 13  1  0  0  0  0
 14 15  2  0  0  0  0
 14 16  1  0  0  0  0
 14 22  1  0  0  0  0
 16 21  2  0  0  0  0
 16 17  1  0  0  0  0
 17 18  2  0  0  0  0
 18 19  1  0  0  0  0
 19 20  2  0  0  0  0
 20 21  1  0  0  0  0
 22 27  2  0  0  0  0
 22 23  1  0  0  0  0
 23 24  2  0  0  0  0
 24 25  1  0  0  0  0
 25 26  2  0  0  0  0
 26 27  1  0  0  0  0
 28 29  2  0  0  0  0
 29 30  1  0  0  0  0
 30 31  2  0  0  0  0
 31 32  1  0  0  0  0
M  END
> <NMREDATA_VERSION>
1.1

> <NMREDATA_LEVEL>
0

> <NMREDATA_SOLVENT>
CDCl3

> <NMREDATA_FORMULA>
C28H22NO2P

> <NMREDATA_SMILES>
Cc1ccc(cc1)NC(=O)C1=C(c2ccccc2)c2c(P1(=O)c1ccccc1)cccc2

> <NMREDATA_ASSIGNMENT>
P14, 39.80, 14

> <NMREDATA_1D_31P>
Larmor=243
39.80, L=P14

$$$$
