
 OpenBabel06112616442D

 38 43  0  0  1  0  0  0  0  0999 V2000
   -1.3358    2.2138    0.0000 C    0  0  0  0  0  0  0  0  0  0  0  0
   -1.1326    1.2579    0.0000 C    0  0  0  0  0  0  0  0  0  0  0  0
   -0.2032    0.9559    0.0000 C    0  0  0  0  0  0  0  0  0  0  0  0
    0.5231    1.6098    0.0000 C    0  0  0  0  0  0  0  0  0  0  0  0
    1.4525    1.3078    0.0000 C    0  0  0  0  0  0  0  0  0  0  0  0
    1.6557    0.3519    0.0000 C    0  0  0  0  0  0  0  0  0  0  0  0
    2.5851    0.0499    0.0000 C    0  0  3  0  0  0  0  0  0  0  0  0
    3.3758    0.6244    0.0000 C    0  0  0  0  0  0  0  0  0  0  0  0
    3.3758    1.6016    0.0000 C    0  0  0  0  0  0  0  0  0  0  0  0
    4.2221    2.0903    0.0000 C    0  0  0  0  0  0  0  0  0  0  0  0
    5.9148    1.1130    0.0000 P    0  0  0  0  0  0  0  0  0  0  0  0
    6.7611    1.6016    0.0000 C    0  0  0  0  0  0  0  0  0  0  0  0
    7.6075    1.1130    0.0000 C    0  0  0  0  0  0  0  0  0  0  0  0
    8.4538    1.6016    0.0000 C    0  0  0  0  0  0  0  0  0  0  0  0
    8.4538    2.5789    0.0000 C    0  0  0  0  0  0  0  0  0  0  0  0
    7.6075    3.0675    0.0000 C    0  0  0  0  0  0  0  0  0  0  0  0
    6.7611    2.5789    0.0000 C    0  0  0  0  0  0  0  0  0  0  0  0
    5.9148    0.1357    0.0000 C    0  0  0  0  0  0  0  0  0  0  0  0
    5.0685   -0.3529    0.0000 C    0  0  0  0  0  0  0  0  0  0  0  0
    5.0685   -1.3302    0.0000 C    0  0  0  0  0  0  0  0  0  0  0  0
    5.9148   -1.8188    0.0000 C    0  0  0  0  0  0  0  0  0  0  0  0
    6.7611   -1.3302    0.0000 C    0  0  0  0  0  0  0  0  0  0  0  0
    6.7611   -0.3529    0.0000 C    0  0  0  0  0  0  0  0  0  0  0  0
    4.2221    3.0675    0.0000 C    0  0  0  0  0  0  0  0  0  0  0  0
    3.3758    3.5562    0.0000 C    0  0  0  0  0  0  0  0  0  0  0  0
    2.5294    3.0675    0.0000 C    0  0  0  0  0  0  0  0  0  0  0  0
    2.5294    2.0903    0.0000 C    0  0  0  0  0  0  0  0  0  0  0  0
    4.1664    0.0499    0.0000 C    0  0  0  0  0  0  0  0  0  0  0  0
    3.8644   -0.8795    0.0000 C    0  0  0  0  0  0  0  0  0  0  0  0
    2.8871   -0.8795    0.0000 C    0  0  0  0  0  0  0  0  0  0  0  0
    2.3127   -1.6701    0.0000 Fe   0  0  0  0  0  0  0  0  0  0  0  0
    2.7102   -2.5629    0.0000 C    0  0  3  0  0  0  0  0  0  0  0  0
    3.6661   -2.7661    0.0000 C    0  0  0  0  0  0  0  0  0  0  0  0
    3.7683   -3.7380    0.0000 C    0  0  0  0  0  0  0  0  0  0  0  0
    2.8755   -4.1355    0.0000 C    0  0  0  0  0  0  0  0  0  0  0  0
    2.2216   -3.4093    0.0000 C    0  0  0  0  0  0  0  0  0  0  0  0
    0.9294   -0.3020    0.0000 C    0  0  0  0  0  0  0  0  0  0  0  0
    0.0000    0.0000    0.0000 C    0  0  0  0  0  0  0  0  0  0  0  0
  1  2  2  0  0  0  0
  2  3  1  0  0  0  0
  3 38  2  0  0  0  0
  3  4  1  0  0  0  0
  4  5  2  0  0  0  0
  5  6  1  0  0  0  0
  6  7  1  0  0  0  0
  6 37  2  0  0  0  0
  7 30  1  0  0  0  0
  7  8  1  0  0  0  0
  8  9  1  0  0  0  0
  8 28  2  0  0  0  0
  9 27  2  0  0  0  0
  9 10  1  0  0  0  0
 10 11  1  0  0  0  0
 10 24  2  0  0  0  0
 11 12  1  0  0  0  0
 11 18  1  0  0  0  0
 12 17  2  0  0  0  0
 12 13  1  0  0  0  0
 13 14  2  0  0  0  0
 14 15  1  0  0  0  0
 15 16  2  0  0  0  0
 16 17  1  0  0  0  0
 18 23  2  0  0  0  0
 18 19  1  0  0  0  0
 19 20  2  0  0  0  0
 20 21  1  0  0  0  0
 21 22  2  0  0  0  0
 22 23  1  0  0  0  0
 24 25  1  0  0  0  0
 25 26  2  0  0  0  0
 26 27  1  0  0  0  0
 28 29  1  0  0  0  0
 29 30  2  0  0  0  0
 30 31  1  0  0  0  0
 31 32  1  0  0  0  0
 32 36  1  0  0  0  0
 32 33  1  0  0  0  0
 33 34  2  0  0  0  0
 34 35  1  0  0  0  0
 35 36  2  0  0  0  0
 37 38  1  0  0  0  0
M  END
> <NMREDATA_VERSION>
1.1

> <NMREDATA_LEVEL>
0

> <NMREDATA_SOLVENT>
CDCl3

> <NMREDATA_FORMULA>
C36H29FeP

> <NMREDATA_SMILES>
C=Cc1ccc(cc1)C1C(=CC=C1c1ccccc1P(c1ccccc1)c1ccccc1)[Fe]C1C=CC=C1

> <NMREDATA_ASSIGNMENT>
P11, -13.91, 11

> <NMREDATA_1D_31P>
Larmor=202
-13.91, L=P11

$$$$
