
 OpenBabel06112616432D

 21 23  0  0  0  0  0  0  0  0999 V2000
   -4.7683   -3.5074    0.0000 C   0  0  0  0  0  0  0  0  0  0  0  0
   -4.9762   -2.5292    0.0000 C   0  0  0  0  0  0  0  0  0  0  0  0
   -4.2330   -1.8601    0.0000 C   0  0  0  0  0  0  0  0  0  0  0  0
   -3.2820   -2.1691    0.0000 C   0  0  0  0  0  0  0  0  0  0  0  0
   -3.0741   -3.1473    0.0000 C   0  0  0  0  0  0  0  0  0  0  0  0
   -3.8172   -3.8164    0.0000 C   0  0  0  0  0  0  0  0  0  0  0  0
   -2.1230   -3.4563    0.0000 C   0  0  0  0  0  0  0  0  0  0  0  0
   -1.3799   -2.7872    0.0000 C   0  0  0  0  0  0  0  0  0  0  0  0
   -1.5878   -1.8090    0.0000 N   0  0  0  0  0  0  0  0  0  0  0  0
   -2.5388   -1.5000    0.0000 C   0  0  0  0  0  0  0  0  0  0  0  0
   -2.5388   -0.5000    0.0000 C   0  0  0  0  0  0  0  0  0  0  0  0
   -1.5878   -0.1910    0.0000 C   0  0  0  0  0  0  0  0  0  0  0  0
   -1.0000   -1.0000    0.0000 C   0  0  0  0  0  0  0  0  0  0  0  0
    0.0000   -1.0000    0.0000 P   0  0  0  0  0  0  0  0  0  0  0  0
    0.0000   -2.0000    0.0000 O   0  0  0  0  0  0  0  0  0  0  0  0
    1.0000   -1.0000    0.0000 O   0  0  0  0  0  0  0  0  0  0  0  0
    1.5000   -1.8660    0.0000 C   0  0  0  0  0  0  0  0  0  0  0  0
    2.5000   -1.8660    0.0000 C   0  0  0  0  0  0  0  0  0  0  0  0
    0.0000    0.0000    0.0000 O   0  0  0  0  0  0  0  0  0  0  0  0
    0.8660    0.5000    0.0000 C   0  0  0  0  0  0  0  0  0  0  0  0
    1.7321    0.0000    0.0000 C   0  0  0  0  0  0  0  0  0  0  0  0
  1  6  2  0  0  0  0
  1  2  1  0  0  0  0
  2  3  2  0  0  0  0
  3  4  1  0  0  0  0
  4 10  1  0  0  0  0
  4  5  2  0  0  0  0
  5  6  1  0  0  0  0
  5  7  1  0  0  0  0
  7  8  1  0  0  0  0
  8  9  1  0  0  0  0
  9 13  1  0  0  0  0
  9 10  1  0  0  0  0
 10 11  2  0  0  0  0
 11 12  1  0  0  0  0
 12 13  2  0  0  0  0
 13 14  1  0  0  0  0
 14 15  2  0  0  0  0
 14 16  1  0  0  0  0
 14 19  1  0  0  0  0
 16 17  1  0  0  0  0
 17 18  1  0  0  0  0
 19 20  1  0  0  0  0
 20 21  1  0  0  0  0
M  END
> <NMREDATA_VERSION>
1.1

> <NMREDATA_LEVEL>
0

> <NMREDATA_SOLVENT>
CDCl3

> <NMREDATA_FORMULA>
C16H20NO3P

> <NMREDATA_SMILES>
CCOP(=O)(c1ccc2-c3c(CCn12)cccc3)OCC

> <NMREDATA_ASSIGNMENT>
P14, 10.17, 14

> <NMREDATA_1D_31P>
Larmor=162
10.17, L=P14

$$$$
