
 OpenBabel06112616462D

 31 33  0  0  1  0  0  0  0  0999 V2000
    1.8660    0.5000    0.0000 C    0  0  0  0  0  0  0  0  0  0  0  0
    1.0000    0.0000    0.0000 C    0  0  0  0  0  0  0  0  0  0  0  0
    1.0000   -1.0000    0.0000 C    0  0  3  0  0  0  0  0  0  0  0  0
    2.0000   -1.0000    0.0000 C    0  0  0  0  0  0  0  0  0  0  0  0
    2.5000   -1.8660    0.0000 C    0  0  0  0  0  0  0  0  0  0  0  0
    2.0000   -2.7321    0.0000 O    0  0  0  0  0  0  0  0  0  0  0  0
    3.5000   -1.8660    0.0000 C    0  0  0  0  0  0  0  0  0  0  0  0
    4.0000   -1.0000    0.0000 C    0  0  0  0  0  0  0  0  0  0  0  0
    5.0000   -1.0000    0.0000 C    0  0  0  0  0  0  0  0  0  0  0  0
    5.5000   -1.8660    0.0000 C    0  0  0  0  0  0  0  0  0  0  0  0
    5.0000   -2.7321    0.0000 C    0  0  0  0  0  0  0  0  0  0  0  0
    4.0000   -2.7321    0.0000 C    0  0  0  0  0  0  0  0  0  0  0  0
    3.5000   -3.5981    0.0000 Cl   0  0  0  0  0  0  0  0  0  0  0  0
    1.0000   -2.0000    0.0000 C    0  0  0  0  0  0  0  0  0  0  0  0
    1.5000   -2.8660    0.0000 F    0  0  0  0  0  0  0  0  0  0  0  0
    2.0000   -2.0000    0.0000 F    0  0  0  0  0  0  0  0  0  0  0  0
    0.1340   -2.5000    0.0000 F    0  0  0  0  0  0  0  0  0  0  0  0
    0.0000   -1.0000    0.0000 P    0  0  0  0  0  0  0  0  0  0  0  0
    0.0000   -2.0000    0.0000 O    0  0  0  0  0  0  0  0  0  0  0  0
   -1.0000   -1.0000    0.0000 C    0  0  0  0  0  0  0  0  0  0  0  0
   -1.5000   -0.1340    0.0000 C    0  0  0  0  0  0  0  0  0  0  0  0
   -2.5000   -0.1340    0.0000 C    0  0  0  0  0  0  0  0  0  0  0  0
   -3.0000   -1.0000    0.0000 C    0  0  0  0  0  0  0  0  0  0  0  0
   -2.5000   -1.8660    0.0000 C    0  0  0  0  0  0  0  0  0  0  0  0
   -1.5000   -1.8660    0.0000 C    0  0  0  0  0  0  0  0  0  0  0  0
    0.0000    0.0000    0.0000 C    0  0  0  0  0  0  0  0  0  0  0  0
    0.8660    0.5000    0.0000 C    0  0  0  0  0  0  0  0  0  0  0  0
    0.8660    1.5000    0.0000 C    0  0  0  0  0  0  0  0  0  0  0  0
    0.0000    2.0000    0.0000 C    0  0  0  0  0  0  0  0  0  0  0  0
   -0.8660    1.5000    0.0000 C    0  0  0  0  0  0  0  0  0  0  0  0
   -0.8660    0.5000    0.0000 C    0  0  0  0  0  0  0  0  0  0  0  0
  1  2  1  0  0  0  0
  2  3  1  0  0  0  0
  3  4  1  0  0  0  0
  3 14  1  0  0  0  0
  3 18  1  0  0  0  0
  4  5  1  0  0  0  0
  5  6  2  0  0  0  0
  5  7  1  0  0  0  0
  7 12  2  0  0  0  0
  7  8  1  0  0  0  0
  8  9  2  0  0  0  0
  9 10  1  0  0  0  0
 10 11  2  0  0  0  0
 11 12  1  0  0  0  0
 12 13  1  0  0  0  0
 14 15  1  0  0  0  0
 14 16  1  0  0  0  0
 14 17  1  0  0  0  0
 18 19  2  0  0  0  0
 18 20  1  0  0  0  0
 18 26  1  0  0  0  0
 20 25  2  0  0  0  0
 20 21  1  0  0  0  0
 21 22  2  0  0  0  0
 22 23  1  0  0  0  0
 23 24  2  0  0  0  0
 24 25  1  0  0  0  0
 26 31  2  0  0  0  0
 26 27  1  0  0  0  0
 27 28  2  0  0  0  0
 28 29  1  0  0  0  0
 29 30  2  0  0  0  0
 30 31  1  0  0  0  0
M  END
> <NMREDATA_VERSION>
1.1

> <NMREDATA_LEVEL>
0

> <NMREDATA_SOLVENT>
CDCl3

> <NMREDATA_FORMULA>
C24H21ClF3O2P

> <NMREDATA_SMILES>
CCC(P(=O)(c1ccccc1)c1ccccc1)(C(F)(F)F)CC(=O)c1ccccc1Cl

> <NMREDATA_ASSIGNMENT>
P18, 31.70, 18

> <NMREDATA_1D_31P>
Larmor=162
31.70, L=P18

$$$$
