
 OpenBabel06112616452D

 34 35  0  0  0  0  0  0  0  0999 V2000
   -2.3616   14.6090    0.0000 C   0  0  0  0  0  0  0  0  0  0  0  0
   -3.3275   14.3502    0.0000 O   0  0  0  0  0  0  0  0  0  0  0  0
   -3.5863   13.3843    0.0000 C   0  0  0  0  0  0  0  0  0  0  0  0
   -4.5522   13.1254    0.0000 O   0  0  0  0  0  0  0  0  0  0  0  0
   -2.8792   12.6772    0.0000 C   0  0  0  0  0  0  0  0  0  0  0  0
   -3.1380   11.7112    0.0000 C   0  0  0  0  0  0  0  0  0  0  0  0
   -2.4309   11.0041    0.0000 C   0  0  0  0  0  0  0  0  0  0  0  0
   -2.6897   10.0382    0.0000 C   0  0  0  0  0  0  0  0  0  0  0  0
   -1.9826    9.3311    0.0000 C   0  0  0  0  0  0  0  0  0  0  0  0
   -2.2414    8.3652    0.0000 C   0  0  0  0  0  0  0  0  0  0  0  0
   -1.5343    7.6581    0.0000 C   0  0  0  0  0  0  0  0  0  0  0  0
   -1.7932    6.6921    0.0000 C   0  0  0  0  0  0  0  0  0  0  0  0
   -1.0860    5.9850    0.0000 C   0  0  0  0  0  0  0  0  0  0  0  0
   -1.3449    5.0191    0.0000 C   0  0  0  0  0  0  0  0  0  0  0  0
   -0.6378    4.3120    0.0000 S   0  0  0  0  0  0  0  0  0  0  0  0
   -0.8966    3.3461    0.0000 S   0  0  0  0  0  0  0  0  0  0  0  0
   -0.1895    2.6390    0.0000 C   0  0  0  0  0  0  0  0  0  0  0  0
   -0.4483    1.6730    0.0000 C   0  0  0  0  0  0  0  0  0  0  0  0
   -1.4142    1.4142    0.0000 O   0  0  0  0  0  0  0  0  0  0  0  0
   -1.6730    0.4483    0.0000 P   0  0  0  0  0  0  0  0  0  0  0  0
   -0.8797   -0.1605    0.0000 S   0  0  0  0  0  0  0  0  0  0  0  0
   -1.6730   -0.5517    0.0000 O   0  0  0  0  0  0  0  0  0  0  0  0
   -2.5391   -1.0517    0.0000 C   0  0  0  0  0  0  0  0  0  0  0  0
   -3.4051   -0.5517    0.0000 C   0  0  0  0  0  0  0  0  0  0  0  0
   -4.4051   -0.5517    0.0000 C   0  0  0  0  0  0  0  0  0  0  0  0
   -3.9051   -1.4177    0.0000 C   0  0  0  0  0  0  0  0  0  0  0  0
   -3.4051    0.4483    0.0000 C   0  0  0  0  0  0  0  0  0  0  0  0
   -2.5391    0.9483    0.0000 O   0  0  0  0  0  0  0  0  0  0  0  0
    0.2588    0.9659    0.0000 C   0  0  0  0  0  0  0  0  0  0  0  0
    1.2247    1.2247    0.0000 C   0  0  0  0  0  0  0  0  0  0  0  0
    1.9319    0.5176    0.0000 C   0  0  0  0  0  0  0  0  0  0  0  0
    1.6730   -0.4483    0.0000 C   0  0  0  0  0  0  0  0  0  0  0  0
    0.7071   -0.7071    0.0000 C   0  0  0  0  0  0  0  0  0  0  0  0
    0.0000    0.0000    0.0000 C   0  0  0  0  0  0  0  0  0  0  0  0
  1  2  1  0  0  0  0
  2  3  1  0  0  0  0
  3  4  2  0  0  0  0
  3  5  1  0  0  0  0
  5  6  1  0  0  0  0
  6  7  1  0  0  0  0
  7  8  1  0  0  0  0
  8  9  1  0  0  0  0
  9 10  1  0  0  0  0
 10 11  1  0  0  0  0
 11 12  1  0  0  0  0
 12 13  1  0  0  0  0
 13 14  1  0  0  0  0
 14 15  1  0  0  0  0
 15 16  1  0  0  0  0
 16 17  1  0  0  0  0
 17 18  2  0  0  0  0
 18 19  1  0  0  0  0
 18 29  1  0  0  0  0
 19 20  1  0  0  0  0
 20 28  1  0  0  0  0
 20 21  2  0  0  0  0
 20 22  1  0  0  0  0
 22 23  1  0  0  0  0
 23 24  1  0  0  0  0
 24 25  1  0  0  0  0
 24 26  1  0  0  0  0
 24 27  1  0  0  0  0
 27 28  1  0  0  0  0
 29 34  2  0  0  0  0
 29 30  1  0  0  0  0
 30 31  2  0  0  0  0
 31 32  1  0  0  0  0
 32 33  2  0  0  0  0
 33 34  1  0  0  0  0
M  END
> <NMREDATA_VERSION>
1.1

> <NMREDATA_LEVEL>
0

> <NMREDATA_SOLVENT>
CDCl3

> <NMREDATA_FORMULA>
C25H39O5PS3

> <NMREDATA_SMILES>
COC(=O)CCCCCCCCCCSS/C=C(/c1ccccc1)\OP1(=S)OCC(CO1)(C)C

> <NMREDATA_ASSIGNMENT>
P20, 55.86, 20

> <NMREDATA_1D_31P>
Larmor=162
55.86, L=P20

$$$$
