
 OpenBabel06112616492D

 51 56  0  0  1  0  0  0  0  0999 V2000
    5.4736    4.0597    0.0000 C   0  0  0  0  0  0  0  0  0  0  0  0
    5.2657    3.0815    0.0000 O   0  0  0  0  0  0  0  0  0  0  0  0
    6.0089    2.4124    0.0000 C   0  0  0  0  0  0  0  0  0  0  0  0
    6.9599    2.7214    0.0000 O   0  0  0  0  0  0  0  0  0  0  0  0
    5.8010    1.4343    0.0000 C   0  0  0  0  0  0  0  0  0  0  0  0
    4.8499    1.1252    0.0000 C   0  0  0  0  0  0  0  0  0  0  0  0
    4.6420    0.1471    0.0000 C   0  0  0  0  0  0  0  0  0  0  0  0
    3.6909   -0.1619    0.0000 C   0  0  0  0  0  0  0  0  0  0  0  0
    2.9478    0.5072    0.0000 C   0  0  0  0  0  0  0  0  0  0  0  0
    1.9967    0.1982    0.0000 C   0  0  0  0  0  0  0  0  0  0  0  0
    1.7888   -0.7800    0.0000 C   0  0  0  0  0  0  0  0  0  0  0  0
    0.8378   -1.0890    0.0000 C   0  0  0  0  0  0  0  0  0  0  0  0
    0.0946   -0.4198    0.0000 C   0  0  0  0  0  0  0  0  0  0  0  0
   -0.8564   -0.7289    0.0000 C   0  0  0  0  0  0  0  0  0  0  0  0
   -1.0644   -1.7070    0.0000 C   0  0  0  0  0  0  0  0  0  0  0  0
   -2.0154   -2.0160    0.0000 P   0  3  0  0  0  0  0  0  0  0  0  0
   -1.7064   -2.9671    0.0000 C   0  0  0  0  0  0  0  0  0  0  0  0
   -2.3755   -3.7102    0.0000 C   0  0  0  0  0  0  0  0  0  0  0  0
   -2.0665   -4.6613    0.0000 C   0  0  0  0  0  0  0  0  0  0  0  0
   -1.0884   -4.8692    0.0000 C   0  0  0  0  0  0  0  0  0  0  0  0
   -0.4192   -4.1261    0.0000 C   0  0  0  0  0  0  0  0  0  0  0  0
   -0.7282   -3.1750    0.0000 C   0  0  0  0  0  0  0  0  0  0  0  0
   -2.9665   -2.3250    0.0000 C   0  0  0  0  0  0  0  0  0  0  0  0
   -3.7096   -1.6559    0.0000 C   0  0  0  0  0  0  0  0  0  0  0  0
   -4.6607   -1.9649    0.0000 C   0  0  0  0  0  0  0  0  0  0  0  0
   -4.8686   -2.9431    0.0000 C   0  0  0  0  0  0  0  0  0  0  0  0
   -4.1254   -3.6122    0.0000 C   0  0  0  0  0  0  0  0  0  0  0  0
   -3.1744   -3.3032    0.0000 C   0  0  0  0  0  0  0  0  0  0  0  0
   -2.3244   -1.0650    0.0000 C   0  0  0  0  0  0  0  0  0  0  0  0
   -1.6553   -0.3218    0.0000 C   0  0  0  0  0  0  0  0  0  0  0  0
   -1.9643    0.6292    0.0000 N   0  0  0  0  0  0  0  0  0  0  0  0
   -2.9425    0.8371    0.0000 C   0  0  0  0  0  0  0  0  0  0  0  0
   -3.2515    1.7882    0.0000 C   0  0  0  0  0  0  0  0  0  0  0  0
   -2.5823    2.5313    0.0000 C   0  0  0  0  0  0  0  0  0  0  0  0
   -2.8914    3.4824    0.0000 C   0  0  0  0  0  0  0  0  0  0  0  0
   -2.2222    4.2255    0.0000 C   0  0  0  0  0  0  0  0  0  0  0  0
   -1.2441    4.0176    0.0000 C   0  0  1  0  0  0  0  0  0  0  0  0
   -0.8373    3.1041    0.0000 C   0  0  2  0  0  0  0  0  0  0  0  0
    0.1572    3.2086    0.0000 C   0  0  1  0  0  0  0  0  0  0  0  0
    0.5639    2.2951    0.0000 N   0  0  0  0  0  0  0  0  0  0  0  0
   -0.1792    1.6259    0.0000 C   0  0  0  0  0  0  0  0  0  0  0  0
   -0.0747    0.6314    0.0000 O   0  0  0  0  0  0  0  0  0  0  0  0
   -1.0453    2.1259    0.0000 N   0  0  0  0  0  0  0  0  0  0  0  0
    0.3651    4.1868    0.0000 C   0  0  0  0  0  0  0  0  0  0  0  0
   -0.5009    4.6868    0.0000 S   0  0  0  0  0  0  0  0  0  0  0  0
   -3.6116    0.0940    0.0000 O   0  0  0  0  0  0  0  0  0  0  0  0
   -0.3212   -2.3761    0.0000 C   0  0  0  0  0  0  0  0  0  0  0  0
    0.6299   -2.0671    0.0000 C   0  0  0  0  0  0  0  0  0  0  0  0
    2.5320   -1.4491    0.0000 C   0  0  0  0  0  0  0  0  0  0  0  0
    3.4830   -1.1401    0.0000 C   0  0  0  0  0  0  0  0  0  0  0  0
    5.3851   -0.5220    0.0000 O   0  0  0  0  0  0  0  0  0  0  0  0
  1  2  1  0  0  0  0
  2  3  1  0  0  0  0
  3  4  2  0  0  0  0
  3  5  1  0  0  0  0
  5  6  1  0  0  0  0
  6  7  1  0  0  0  0
  7  8  1  0  0  0  0
  7 51  2  0  0  0  0
  8 50  2  0  0  0  0
  8  9  1  0  0  0  0
  9 10  2  0  0  0  0
 10 11  1  0  0  0  0
 11 12  1  0  0  0  0
 11 49  2  0  0  0  0
 12 48  2  0  0  0  0
 12 13  1  0  0  0  0
 13 14  2  0  0  0  0
 14 15  1  0  0  0  0
 15 16  1  0  0  0  0
 15 47  2  0  0  0  0
 16 17  1  0  0  0  0
 16 23  1  0  0  0  0
 16 29  1  0  0  0  0
 17 22  2  0  0  0  0
 17 18  1  0  0  0  0
 18 19  2  0  0  0  0
 19 20  1  0  0  0  0
 20 21  2  0  0  0  0
 21 22  1  0  0  0  0
 23 28  2  0  0  0  0
 23 24  1  0  0  0  0
 24 25  2  0  0  0  0
 25 26  1  0  0  0  0
 26 27  2  0  0  0  0
 27 28  1  0  0  0  0
 29 30  1  0  0  0  0
 30 31  1  0  0  0  0
 31 32  1  0  0  0  0
 32 33  1  0  0  0  0
 32 46  2  0  0  0  0
 33 34  1  0  0  0  0
 34 35  1  0  0  0  0
 35 36  1  0  0  0  0
 37 36  1  6  0  0  0
 37 38  1  0  0  0  0
 37 45  1  0  0  0  0
 38 39  1  0  0  0  0
 38 43  1  6  0  0  0
 39 40  1  0  0  0  0
 39 44  1  6  0  0  0
 40 41  1  0  0  0  0
 41 42  2  0  0  0  0
 41 43  1  0  0  0  0
 44 45  1  0  0  0  0
 47 48  1  0  0  0  0
 49 50  1  0  0  0  0
M  END
> <NMREDATA_VERSION>
1.1

> <NMREDATA_LEVEL>
0

> <NMREDATA_SOLVENT>
CDCl3

> <NMREDATA_FORMULA>
C41H45N3O5PS

> <NMREDATA_SMILES>
COC(=O)CCC(=O)c1ccc(cc1)c1ccc(cc1)[P+](c1ccccc1)(c1ccccc1)CCNC(=O)CCCC[C@@H]1SC[C@H]2[C@@H]1NC(=O)N2

> <NMREDATA_ASSIGNMENT>
P16, 21.90, 16

> <NMREDATA_1D_31P>
Larmor=162
21.90, L=P16

$$$$
