
 OpenBabel06112616442D

 64 75  0  0  1  0  0  0  0  0999 V2000
    0.8327    0.4808    0.0000 C   0  0  0  0  0  0  0  0  0  0  0  0
    0.8327    1.4423    0.0000 C   0  0  0  0  0  0  0  0  0  0  0  0
    0.0000    1.9231    0.0000 C   0  0  0  0  0  0  0  0  0  0  0  0
    0.0000    2.8846    0.0000 C   0  0  0  0  0  0  0  0  0  0  0  0
   -0.8327    3.3654    0.0000 C   0  0  0  0  0  0  0  0  0  0  0  0
   -1.6654    2.8846    0.0000 C   0  0  0  0  0  0  0  0  0  0  0  0
   -2.4982    3.3654    0.0000 C   0  0  0  0  0  0  0  0  0  0  0  0
   -2.4982    4.3269    0.0000 C   0  0  0  0  0  0  0  0  0  0  0  0
   -1.6654    4.8077    0.0000 C   0  0  0  0  0  0  0  0  0  0  0  0
   -0.8327    4.3269    0.0000 C   0  0  0  0  0  0  0  0  0  0  0  0
    0.8327    3.3654    0.0000 C   0  0  0  0  0  0  0  0  0  0  0  0
    1.6654    2.8846    0.0000 C   0  0  0  0  0  0  0  0  0  0  0  0
    2.4982    3.3654    0.0000 C   0  0  2  0  0  0  0  0  0  0  0  0
    3.3766    2.9743    0.0000 C   0  0  0  0  0  0  0  0  0  0  0  0
    4.0200    3.6889    0.0000 C   0  0  0  0  0  0  0  0  0  0  0  0
    3.5392    4.5216    0.0000 C   0  0  2  0  0  0  0  0  0  0  0  0
    3.9303    5.4000    0.0000 C   0  0  0  0  0  0  0  0  0  0  0  0
    4.8865    5.5005    0.0000 C   0  0  0  0  0  0  0  0  0  0  0  0
    5.2776    6.3789    0.0000 C   0  0  0  0  0  0  0  0  0  0  0  0
    6.2339    6.4794    0.0000 C   0  0  0  0  0  0  0  0  0  0  0  0
    6.7991    5.7015    0.0000 C   0  0  0  0  0  0  0  0  0  0  0  0
    7.7554    5.8020    0.0000 C   0  0  0  0  0  0  0  0  0  0  0  0
    8.1465    6.6804    0.0000 C   0  0  0  0  0  0  0  0  0  0  0  0
    7.5813    7.4583    0.0000 C   0  0  0  0  0  0  0  0  0  0  0  0
    6.6250    7.3578    0.0000 C   0  0  0  0  0  0  0  0  0  0  0  0
    4.7125    7.1568    0.0000 C   0  0  0  0  0  0  0  0  0  0  0  0
    3.7562    7.0563    0.0000 C   0  0  0  0  0  0  0  0  0  0  0  0
    3.1910    7.8342    0.0000 C   0  0  0  0  0  0  0  0  0  0  0  0
    3.5821    8.7126    0.0000 C   0  0  0  0  0  0  0  0  0  0  0  0
    3.0169    9.4905    0.0000 C   0  0  0  0  0  0  0  0  0  0  0  0
    2.0607    9.3900    0.0000 C   0  0  0  0  0  0  0  0  0  0  0  0
    1.6696    8.5116    0.0000 C   0  0  0  0  0  0  0  0  0  0  0  0
    2.2347    7.7337    0.0000 C   0  0  0  0  0  0  0  0  0  0  0  0
    3.3651    6.1779    0.0000 C   0  0  0  0  0  0  0  0  0  0  0  0
    2.5987    4.3217    0.0000 N   0  0  0  0  0  0  0  0  0  0  0  0
   -0.2596    6.8952    0.0000 P   0  0  0  0  0  0  0  0  0  0  0  0
    0.0101    7.8182    0.0000 O   0  0  0  0  0  0  0  0  0  0  0  0
   -0.5434    8.6045    0.0000 C   0  0  0  0  0  0  0  0  0  0  0  0
   -0.0137    9.4069    0.0000 C   0  0  0  0  0  0  0  0  0  0  0  0
   -0.4438   10.2669    0.0000 C   0  0  0  0  0  0  0  0  0  0  0  0
   -1.4036   10.3244    0.0000 C   0  0  0  0  0  0  0  0  0  0  0  0
   -1.8338   11.1844    0.0000 C   0  0  0  0  0  0  0  0  0  0  0  0
   -2.7936   11.2419    0.0000 C   0  0  0  0  0  0  0  0  0  0  0  0
   -3.3233   10.4394    0.0000 C   0  0  0  0  0  0  0  0  0  0  0  0
   -2.8932    9.5794    0.0000 C   0  0  0  0  0  0  0  0  0  0  0  0
   -1.9334    9.5219    0.0000 C   0  0  0  0  0  0  0  0  0  0  0  0
   -1.5032    8.6620    0.0000 C   0  0  0  0  0  0  0  0  0  0  0  0
   -2.1466    7.9474    0.0000 C   0  0  0  0  0  0  0  0  0  0  0  0
   -1.9891    6.9989    0.0000 C   0  0  0  0  0  0  0  0  0  0  0  0
   -2.7318    6.3882    0.0000 C   0  0  0  0  0  0  0  0  0  0  0  0
   -3.6321    6.7260    0.0000 C   0  0  0  0  0  0  0  0  0  0  0  0
   -3.7896    7.6746    0.0000 C   0  0  0  0  0  0  0  0  0  0  0  0
   -4.6898    8.0124    0.0000 C   0  0  0  0  0  0  0  0  0  0  0  0
   -4.8473    8.9610    0.0000 C   0  0  0  0  0  0  0  0  0  0  0  0
   -4.1046    9.5717    0.0000 C   0  0  0  0  0  0  0  0  0  0  0  0
   -3.2044    9.2338    0.0000 C   0  0  0  0  0  0  0  0  0  0  0  0
   -3.0469    8.2853    0.0000 C   0  0  0  0  0  0  0  0  0  0  0  0
   -1.1493    6.5306    0.0000 O   0  0  0  0  0  0  0  0  0  0  0  0
    1.6654    1.9231    0.0000 C   0  0  0  0  0  0  0  0  0  0  0  0
    1.6654    0.0000    0.0000 C   0  0  0  0  0  0  0  0  0  0  0  0
    1.6654   -0.9615    0.0000 C   0  0  0  0  0  0  0  0  0  0  0  0
    0.8327   -1.4423    0.0000 C   0  0  0  0  0  0  0  0  0  0  0  0
    0.0000   -0.9615    0.0000 C   0  0  0  0  0  0  0  0  0  0  0  0
    0.0000    0.0000    0.0000 C   0  0  0  0  0  0  0  0  0  0  0  0
  1 64  2  0  0  0  0
  1  2  1  0  0  0  0
  1 60  1  0  0  0  0
  2 59  2  0  0  0  0
  2  3  1  0  0  0  0
  3  4  2  0  0  0  0
  4  5  1  0  0  0  0
  4 11  1  0  0  0  0
  5 10  2  0  0  0  0
  5  6  1  0  0  0  0
  6  7  2  0  0  0  0
  7  8  1  0  0  0  0
  8  9  2  0  0  0  0
  9 10  1  0  0  0  0
 11 12  2  0  0  0  0
 12 59  1  0  0  0  0
 13 12  1  1  0  0  0
 13 14  1  0  0  0  0
 13 35  1  0  0  0  0
 14 15  1  0  0  0  0
 15 16  1  0  0  0  0
 16 17  1  1  0  0  0
 16 35  1  0  0  0  0
 17 34  2  0  0  0  0
 17 18  1  0  0  0  0
 18 19  2  0  0  0  0
 19 20  1  0  0  0  0
 19 26  1  0  0  0  0
 20 25  2  0  0  0  0
 20 21  1  0  0  0  0
 21 22  2  0  0  0  0
 22 23  1  0  0  0  0
 23 24  2  0  0  0  0
 24 25  1  0  0  0  0
 26 27  2  0  0  0  0
 27 28  1  0  0  0  0
 27 34  1  0  0  0  0
 28 33  2  0  0  0  0
 28 29  1  0  0  0  0
 29 30  2  0  0  0  0
 30 31  1  0  0  0  0
 31 32  2  0  0  0  0
 32 33  1  0  0  0  0
 35 36  1  0  0  0  0
 36 58  1  0  0  0  0
 36 37  1  0  0  0  0
 37 38  1  0  0  0  0
 38 47  2  0  0  0  0
 38 39  1  0  0  0  0
 39 40  2  0  0  0  0
 40 41  1  0  0  0  0
 41 46  2  0  0  0  0
 41 42  1  0  0  0  0
 42 43  2  0  0  0  0
 43 44  1  0  0  0  0
 44 45  2  0  0  0  0
 45 46  1  0  0  0  0
 46 47  1  0  0  0  0
 47 48  1  0  0  0  0
 48 57  2  0  0  0  0
 48 49  1  0  0  0  0
 49 50  2  0  0  0  0
 49 58  1  0  0  0  0
 50 51  1  0  0  0  0
 51 52  2  0  0  0  0
 52 57  1  0  0  0  0
 52 53  1  0  0  0  0
 53 54  2  0  0  0  0
 54 55  1  0  0  0  0
 55 56  2  0  0  0  0
 56 57  1  0  0  0  0
 60 61  2  0  0  0  0
 61 62  1  0  0  0  0
 62 63  2  0  0  0  0
 63 64  1  0  0  0  0
M  END
> <NMREDATA_VERSION>
1.1

> <NMREDATA_LEVEL>
0

> <NMREDATA_SOLVENT>
CDCl3

> <NMREDATA_FORMULA>
C60H44NO2P

> <NMREDATA_SMILES>
c1ccc(cc1)c1cc(cc(c1)c1ccccc1)[C@@H]1CC[C@@H](N1p1oc2ccc3c(c2c2c(o1)ccc1c2cccc1)cccc3)c1cc(cc(c1)c1ccccc1)c1ccccc1

> <NMREDATA_ASSIGNMENT>
P36, 146.20, 36

> <NMREDATA_1D_31P>
Larmor=162
146.20, L=P36

$$$$
