
 OpenBabel06112616442D

 43 48  0  0  0  0  0  0  0  0999 V2000
    0.9796   -0.9796    0.0000 O   0  0  0  0  0  0  0  0  0  0  0  0
    0.0000   -0.9796    0.0000 P   0  0  0  0  0  0  0  0  0  0  0  0
    0.0000   -1.9592    0.0000 C   0  0  0  0  0  0  0  0  0  0  0  0
   -0.8484   -2.4490    0.0000 C   0  0  0  0  0  0  0  0  0  0  0  0
   -0.8484   -3.4286    0.0000 C   0  0  0  0  0  0  0  0  0  0  0  0
    0.0000   -3.9184    0.0000 C   0  0  0  0  0  0  0  0  0  0  0  0
    0.8484   -3.4286    0.0000 C   0  0  0  0  0  0  0  0  0  0  0  0
    0.8484   -2.4490    0.0000 C   0  0  0  0  0  0  0  0  0  0  0  0
   -0.9796   -0.9796    0.0000 C   0  0  0  0  0  0  0  0  0  0  0  0
   -1.4694   -0.1312    0.0000 C   0  0  0  0  0  0  0  0  0  0  0  0
   -2.4490   -0.1312    0.0000 C   0  0  0  0  0  0  0  0  0  0  0  0
   -2.9388   -0.9796    0.0000 C   0  0  0  0  0  0  0  0  0  0  0  0
   -2.4490   -1.8279    0.0000 C   0  0  0  0  0  0  0  0  0  0  0  0
   -1.4694   -1.8279    0.0000 C   0  0  0  0  0  0  0  0  0  0  0  0
    0.0000    0.0000    0.0000 O   0  0  0  0  0  0  0  0  0  0  0  0
    1.4694   -0.1312    0.0000 C   0  0  0  0  0  0  0  0  0  0  0  0
    2.4490   -0.1312    0.0000 C   0  0  0  0  0  0  0  0  0  0  0  0
    3.4286   -1.8279    0.0000 S   0  0  2  0  0  0  0  0  0  0  0  0
    4.2769   -1.3381    0.0000 C   0  0  0  0  0  0  0  0  0  0  0  0
    4.2769   -0.3586    0.0000 C   0  0  0  0  0  0  0  0  0  0  0  0
    3.4286    0.1312    0.0000 O   0  0  0  0  0  0  0  0  0  0  0  0
    5.1253    0.1312    0.0000 C   0  0  0  0  0  0  0  0  0  0  0  0
    5.9736   -0.3586    0.0000 C   0  0  0  0  0  0  0  0  0  0  0  0
    5.9736   -1.3381    0.0000 C   0  0  0  0  0  0  0  0  0  0  0  0
    6.8220   -1.8279    0.0000 C   0  0  0  0  0  0  0  0  0  0  0  0
    7.6703   -1.3381    0.0000 C   0  0  0  0  0  0  0  0  0  0  0  0
    8.5187   -1.8279    0.0000 C   0  0  0  0  0  0  0  0  0  0  0  0
    8.5187   -2.8075    0.0000 C   0  0  0  0  0  0  0  0  0  0  0  0
    7.6703   -3.2973    0.0000 C   0  0  0  0  0  0  0  0  0  0  0  0
    6.8220   -2.8075    0.0000 C   0  0  0  0  0  0  0  0  0  0  0  0
    5.1253   -1.8279    0.0000 C   0  0  0  0  0  0  0  0  0  0  0  0
    3.9184   -2.6763    0.0000 N   0  0  0  0  0  0  0  0  0  0  0  0
    2.5802   -2.3177    0.0000 O   0  0  0  0  0  0  0  0  0  0  0  0
    2.9388    0.7171    0.0000 C   0  0  0  0  0  0  0  0  0  0  0  0
    2.4490    1.5655    0.0000 C   0  0  0  0  0  0  0  0  0  0  0  0
    2.9388    2.4138    0.0000 C   0  0  0  0  0  0  0  0  0  0  0  0
    3.9184    2.4138    0.0000 C   0  0  0  0  0  0  0  0  0  0  0  0
    4.4082    3.2622    0.0000 C   0  0  0  0  0  0  0  0  0  0  0  0
    3.9184    4.1105    0.0000 C   0  0  0  0  0  0  0  0  0  0  0  0
    2.9388    4.1105    0.0000 C   0  0  0  0  0  0  0  0  0  0  0  0
    2.4490    3.2622    0.0000 C   0  0  0  0  0  0  0  0  0  0  0  0
    1.4694    1.5655    0.0000 C   0  0  0  0  0  0  0  0  0  0  0  0
    0.9796    0.7171    0.0000 C   0  0  0  0  0  0  0  0  0  0  0  0
  1  2  1  0  0  0  0
  1 16  1  0  0  0  0
  2  3  1  0  0  0  0
  2  9  1  0  0  0  0
  2 15  2  0  0  0  0
  3  8  2  0  0  0  0
  3  4  1  0  0  0  0
  4  5  2  0  0  0  0
  5  6  1  0  0  0  0
  6  7  2  0  0  0  0
  7  8  1  0  0  0  0
  9 14  2  0  0  0  0
  9 10  1  0  0  0  0
 10 11  2  0  0  0  0
 11 12  1  0  0  0  0
 12 13  2  0  0  0  0
 13 14  1  0  0  0  0
 16 43  2  0  0  0  0
 16 17  1  0  0  0  0
 17 18  1  0  0  0  0
 17 34  2  0  0  0  0
 18 19  1  0  0  0  0
 18 32  2  6  0  0  0
 18 33  2  0  0  0  0
 19 31  2  0  0  0  0
 19 20  1  0  0  0  0
 20 21  1  0  0  0  0
 20 22  2  0  0  0  0
 22 23  1  0  0  0  0
 23 24  2  0  0  0  0
 24 25  1  0  0  0  0
 24 31  1  0  0  0  0
 25 30  2  0  0  0  0
 25 26  1  0  0  0  0
 26 27  2  0  0  0  0
 27 28  1  0  0  0  0
 28 29  2  0  0  0  0
 29 30  1  0  0  0  0
 34 35  1  0  0  0  0
 35 36  1  0  0  0  0
 35 42  2  0  0  0  0
 36 41  2  0  0  0  0
 36 37  1  0  0  0  0
 37 38  2  0  0  0  0
 38 39  1  0  0  0  0
 39 40  2  0  0  0  0
 40 41  1  0  0  0  0
 42 43  1  0  0  0  0
M  END
> <NMREDATA_VERSION>
1.1

> <NMREDATA_LEVEL>
0

> <NMREDATA_SOLVENT>
CDCl3

> <NMREDATA_FORMULA>
C36H28NO4PS

> <NMREDATA_SMILES>
Oc1ccc(cc1[S@](=O)(=N)c1cc(ccc1OP(=O)(c1ccccc1)c1ccccc1)c1ccccc1)c1ccccc1

> <NMREDATA_ASSIGNMENT>
P2, 33.43, 2

> <NMREDATA_1D_31P>
Larmor=162
33.43, L=P2

$$$$
