
 OpenBabel06112616452D

 37 42  0  0  0  0  0  0  0  0999 V2000
   -0.8459    1.4651    0.0000 C   0  0  0  0  0  0  0  0  0  0  0  0
    0.0000    0.9767    0.0000 C   0  0  0  0  0  0  0  0  0  0  0  0
    0.8459    1.4651    0.0000 C   0  0  0  0  0  0  0  0  0  0  0  0
    1.6918    0.9767    0.0000 C   0  0  0  0  0  0  0  0  0  0  0  0
    1.6918    0.0000    0.0000 C   0  0  0  0  0  0  0  0  0  0  0  0
    2.5377   -0.4884    0.0000 C   0  0  0  0  0  0  0  0  0  0  0  0
    3.3835    0.0000    0.0000 C   0  0  0  0  0  0  0  0  0  0  0  0
    4.2294   -0.4884    0.0000 C   0  0  0  0  0  0  0  0  0  0  0  0
    5.0753    0.0000    0.0000 C   0  0  0  0  0  0  0  0  0  0  0  0
    5.9212   -0.4884    0.0000 C   0  0  0  0  0  0  0  0  0  0  0  0
    5.9212   -1.4651    0.0000 C   0  0  0  0  0  0  0  0  0  0  0  0
    5.0753   -1.9535    0.0000 C   0  0  0  0  0  0  0  0  0  0  0  0
    4.2294   -1.4651    0.0000 C   0  0  0  0  0  0  0  0  0  0  0  0
    3.3835   -1.9535    0.0000 P   0  0  3  0  0  0  0  0  0  0  0  0
    2.8952   -2.7994    0.0000 C   0  0  0  0  0  0  0  0  0  0  0  0
    3.3835   -3.6453    0.0000 C   0  0  0  0  0  0  0  0  0  0  0  0
    2.8952   -4.4911    0.0000 C   0  0  0  0  0  0  0  0  0  0  0  0
    1.9184   -4.4911    0.0000 C   0  0  0  0  0  0  0  0  0  0  0  0
    1.4301   -3.6453    0.0000 C   0  0  0  0  0  0  0  0  0  0  0  0
    1.9184   -2.7994    0.0000 C   0  0  0  0  0  0  0  0  0  0  0  0
    3.8719   -2.7994    0.0000 O   0  0  0  0  0  0  0  0  0  0  0  0
    2.5377   -1.4651    0.0000 N   0  0  0  0  0  0  0  0  0  0  0  0
    0.8459   -2.4419    0.0000 C   0  0  0  0  0  0  0  0  0  0  0  0
    0.8459   -3.4186    0.0000 C   0  0  0  0  0  0  0  0  0  0  0  0
    0.0000   -3.9070    0.0000 C   0  0  0  0  0  0  0  0  0  0  0  0
   -0.8459   -3.4186    0.0000 C   0  0  0  0  0  0  0  0  0  0  0  0
   -0.8459   -2.4419    0.0000 C   0  0  0  0  0  0  0  0  0  0  0  0
   -1.6918   -1.9535    0.0000 C   0  0  0  0  0  0  0  0  0  0  0  0
   -1.6918   -0.9767    0.0000 C   0  0  0  0  0  0  0  0  0  0  0  0
   -0.8459   -0.4884    0.0000 C   0  0  0  0  0  0  0  0  0  0  0  0
    0.0000   -0.9767    0.0000 N   0  0  0  0  0  0  0  0  0  0  0  0
    0.0000   -1.9535    0.0000 C   0  0  0  0  0  0  0  0  0  0  0  0
    0.8459   -0.4884    0.0000 C   0  0  0  0  0  0  0  0  0  0  0  0
    0.0000    0.0000    0.0000 C   0  0  0  0  0  0  0  0  0  0  0  0
   -1.8226    1.4651    0.0000 F   0  0  0  0  0  0  0  0  0  0  0  0
   -1.3343    0.6192    0.0000 F   0  0  0  0  0  0  0  0  0  0  0  0
   -0.8459    2.4419    0.0000 F   0  0  0  0  0  0  0  0  0  0  0  0
  1  2  1  0  0  0  0
  1 35  1  0  0  0  0
  1 36  1  0  0  0  0
  1 37  1  0  0  0  0
  2 34  2  0  0  0  0
  2  3  1  0  0  0  0
  3  4  2  0  0  0  0
  4  5  1  0  0  0  0
  5  6  1  0  0  0  0
  5 33  2  0  0  0  0
  6 22  1  0  0  0  0
  6  7  2  0  0  0  0
  7  8  1  0  0  0  0
  8 13  2  0  0  0  0
  8  9  1  0  0  0  0
  9 10  2  0  0  0  0
 10 11  1  0  0  0  0
 11 12  2  0  0  0  0
 12 13  1  0  0  0  0
 13 14  1  0  0  0  0
 14 15  1  0  0  0  0
 14 21  2  0  0  0  0
 14 22  1  0  0  0  0
 15 20  2  0  0  0  0
 15 16  1  0  0  0  0
 16 17  2  0  0  0  0
 17 18  1  0  0  0  0
 18 19  2  0  0  0  0
 19 20  1  0  0  0  0
 22 23  1  0  0  0  0
 23 32  2  0  0  0  0
 23 24  1  0  0  0  0
 24 25  2  0  0  0  0
 25 26  1  0  0  0  0
 26 27  2  0  0  0  0
 27 32  1  0  0  0  0
 27 28  1  0  0  0  0
 28 29  2  0  0  0  0
 29 30  1  0  0  0  0
 30 31  2  0  0  0  0
 31 32  1  0  0  0  0
 33 34  1  0  0  0  0
M  END
> <NMREDATA_VERSION>
1.1

> <NMREDATA_LEVEL>
0

> <NMREDATA_SOLVENT>
CDCl3

> <NMREDATA_FORMULA>
C30H20F3N2OP

> <NMREDATA_SMILES>
FC(c1ccc(cc1)C1=Cc2ccccc2P(=O)(N1c1cccc2c1nccc2)c1ccccc1)(F)F

> <NMREDATA_ASSIGNMENT>
P14, 18.69, 14

> <NMREDATA_1D_31P>
Larmor=162
18.69, L=P14

$$$$
