
 OpenBabel06112616432D

 47 52  0  0  1  0  0  0  0  0999 V2000
    1.2872   -1.1590    0.0000 C   0  0  0  0  0  0  0  0  0  0  0  0
    2.2382   -0.8500    0.0000 F   0  0  0  0  0  0  0  0  0  0  0  0
    1.4951   -0.1808    0.0000 F   0  0  0  0  0  0  0  0  0  0  0  0
    1.5962   -2.1100    0.0000 F   0  0  0  0  0  0  0  0  0  0  0  0
    0.3090   -0.9511    0.0000 C   0  0  0  0  0  0  0  0  0  0  0  0
   -0.3601   -1.6942    0.0000 C   0  0  0  0  0  0  0  0  0  0  0  0
   -1.3383   -1.4863    0.0000 C   0  0  0  0  0  0  0  0  0  0  0  0
   -1.6473   -0.5352    0.0000 C   0  0  0  0  0  0  0  0  0  0  0  0
   -2.6254   -0.3273    0.0000 C   0  0  0  0  0  0  0  0  0  0  0  0
   -3.2946   -1.0705    0.0000 N   0  0  0  0  0  0  0  0  0  0  0  0
   -3.0866   -2.0486    0.0000 C   0  0  2  0  0  0  0  0  0  0  0  0
   -2.2206   -2.5486    0.0000 C   0  0  0  0  0  0  0  0  0  0  0  0
   -2.2206   -3.5486    0.0000 C   0  0  0  0  0  0  0  0  0  0  0  0
   -3.0866   -4.0486    0.0000 C   0  0  0  0  0  0  0  0  0  0  0  0
   -3.9527   -3.5486    0.0000 C   0  0  0  0  0  0  0  0  0  0  0  0
   -3.9527   -2.5486    0.0000 C   0  0  1  0  0  0  0  0  0  0  0  0
   -4.6958   -1.8795    0.0000 N   0  0  0  0  0  0  0  0  0  0  0  0
   -5.6740   -2.0874    0.0000 C   0  0  0  0  0  0  0  0  0  0  0  0
   -5.9830   -3.0385    0.0000 C   0  0  0  0  0  0  0  0  0  0  0  0
   -5.3138   -3.7816    0.0000 C   0  0  0  0  0  0  0  0  0  0  0  0
   -5.6229   -4.7327    0.0000 C   0  0  0  0  0  0  0  0  0  0  0  0
   -6.6010   -4.9406    0.0000 C   0  0  0  0  0  0  0  0  0  0  0  0
   -6.9100   -5.8916    0.0000 C   0  0  0  0  0  0  0  0  0  0  0  0
   -6.7021   -6.8698    0.0000 F   0  0  0  0  0  0  0  0  0  0  0  0
   -5.9590   -6.2006    0.0000 F   0  0  0  0  0  0  0  0  0  0  0  0
   -7.8882   -6.0995    0.0000 F   0  0  0  0  0  0  0  0  0  0  0  0
   -7.2701   -4.1974    0.0000 C   0  0  0  0  0  0  0  0  0  0  0  0
   -6.9611   -3.2464    0.0000 C   0  0  0  0  0  0  0  0  0  0  0  0
   -4.2891   -0.9659    0.0000 P   0  0  3  0  0  0  0  0  0  0  0  0
   -4.2891    0.0341    0.0000 O   0  0  0  0  0  0  0  0  0  0  0  0
   -5.1551   -0.4659    0.0000 N   0  0  0  0  0  0  0  0  0  0  0  0
   -5.1551    0.5341    0.0000 C   0  0  0  0  0  0  0  0  0  0  0  0
   -4.2891    1.0341    0.0000 C   0  0  0  0  0  0  0  0  0  0  0  0
   -4.2891    2.0341    0.0000 C   0  0  0  0  0  0  0  0  0  0  0  0
   -5.1551    2.5341    0.0000 C   0  0  0  0  0  0  0  0  0  0  0  0
   -6.0211    2.0341    0.0000 C   0  0  0  0  0  0  0  0  0  0  0  0
   -6.0211    1.0341    0.0000 C   0  0  0  0  0  0  0  0  0  0  0  0
   -6.8872    0.5341    0.0000 N   0  0  0  0  0  0  0  0  0  0  0  0
   -7.7532    1.0341    0.0000 C   0  0  0  0  0  0  0  0  0  0  0  0
   -8.6192    0.5341    0.0000 C   0  0  0  0  0  0  0  0  0  0  0  0
   -9.4852    1.0341    0.0000 C   0  0  0  0  0  0  0  0  0  0  0  0
  -10.3513    0.5341    0.0000 C   0  0  0  0  0  0  0  0  0  0  0  0
  -10.3513   -0.4659    0.0000 C   0  0  0  0  0  0  0  0  0  0  0  0
   -9.4852   -0.9659    0.0000 C   0  0  0  0  0  0  0  0  0  0  0  0
   -8.6192   -0.4659    0.0000 N   0  0  0  0  0  0  0  0  0  0  0  0
   -0.9781    0.2079    0.0000 C   0  0  0  0  0  0  0  0  0  0  0  0
    0.0000    0.0000    0.0000 C   0  0  0  0  0  0  0  0  0  0  0  0
  1  2  1  0  0  0  0
  1  3  1  0  0  0  0
  1  4  1  0  0  0  0
  1  5  1  0  0  0  0
  5 47  2  0  0  0  0
  5  6  1  0  0  0  0
  6  7  2  0  0  0  0
  7  8  1  0  0  0  0
  8  9  1  0  0  0  0
  8 46  2  0  0  0  0
  9 10  1  0  0  0  0
 10 29  1  0  0  0  0
 10 11  1  0  0  0  0
 11 12  1  6  0  0  0
 11 16  1  0  0  0  0
 12 13  1  0  0  0  0
 13 14  1  0  0  0  0
 14 15  1  0  0  0  0
 16 15  1  1  0  0  0
 16 17  1  0  0  0  0
 17 18  1  0  0  0  0
 17 29  1  0  0  0  0
 18 19  1  0  0  0  0
 19 28  2  0  0  0  0
 19 20  1  0  0  0  0
 20 21  2  0  0  0  0
 21 22  1  0  0  0  0
 22 23  1  0  0  0  0
 22 27  2  0  0  0  0
 23 24  1  0  0  0  0
 23 25  1  0  0  0  0
 23 26  1  0  0  0  0
 27 28  1  0  0  0  0
 29 30  2  0  0  0  0
 29 31  1  0  0  0  0
 31 32  1  0  0  0  0
 32 37  2  0  0  0  0
 32 33  1  0  0  0  0
 33 34  2  0  0  0  0
 34 35  1  0  0  0  0
 35 36  2  0  0  0  0
 36 37  1  0  0  0  0
 37 38  1  0  0  0  0
 38 39  2  0  0  0  0
 39 40  1  0  0  0  0
 40 45  2  0  0  0  0
 40 41  1  0  0  0  0
 41 42  2  0  0  0  0
 42 43  1  0  0  0  0
 43 44  2  0  0  0  0
 44 45  1  0  0  0  0
 46 47  1  0  0  0  0
M  END
> <NMREDATA_VERSION>
1.1

> <NMREDATA_LEVEL>
0

> <NMREDATA_SOLVENT>
CDCl3

> <NMREDATA_FORMULA>
C34H32F6N5OP

> <NMREDATA_SMILES>
O=P1(Nc2ccccc2/N=C/c2ccccn2)N(Cc2ccc(cc2)C(F)(F)F)[C@H]2[C@H](N1Cc1ccc(cc1)C(F)(F)F)CCCC2

> <NMREDATA_ASSIGNMENT>
P29, 21.40, 29

> <NMREDATA_1D_31P>
Larmor=162
21.40, L=P29

$$$$
