
 OpenBabel06112616462D

 19 20  0  0  1  0  0  0  0  0999 V2000
    1.0000   -1.0000    0.0000 O    0  0  0  0  0  0  0  0  0  0  0  0
    1.0000    0.0000    0.0000 P    0  0  0  0  0  0  0  0  0  0  0  0
    2.0000    0.0000    0.0000 O    0  0  0  0  0  0  0  0  0  0  0  0
    2.5000    0.8660    0.0000 C    0  0  0  0  0  0  0  0  0  0  0  0
    3.5000    0.8660    0.0000 C    0  0  0  0  0  0  0  0  0  0  0  0
    1.0000    1.0000    0.0000 O    0  0  0  0  0  0  0  0  0  0  0  0
    1.8660    1.5000    0.0000 C    0  0  0  0  0  0  0  0  0  0  0  0
    1.8660    2.5000    0.0000 C    0  0  0  0  0  0  0  0  0  0  0  0
    0.0000    0.0000    0.0000 C    0  0  3  0  0  0  0  0  0  0  0  0
   -0.5000   -0.8660    0.0000 N    0  0  0  0  0  0  0  0  0  0  0  0
   -1.5000   -0.8660    0.0000 C    0  0  0  0  0  0  0  0  0  0  0  0
   -2.0000    0.0000    0.0000 C    0  0  0  0  0  0  0  0  0  0  0  0
   -1.5000    0.8660    0.0000 C    0  0  0  0  0  0  0  0  0  0  0  0
   -2.0000    1.7321    0.0000 C    0  0  0  0  0  0  0  0  0  0  0  0
   -1.5000    2.5981    0.0000 C    0  0  0  0  0  0  0  0  0  0  0  0
   -0.5000    2.5981    0.0000 C    0  0  0  0  0  0  0  0  0  0  0  0
    0.0000    3.4641    0.0000 Br   0  0  0  0  0  0  0  0  0  0  0  0
    0.0000    1.7321    0.0000 C    0  0  0  0  0  0  0  0  0  0  0  0
   -0.5000    0.8660    0.0000 C    0  0  0  0  0  0  0  0  0  0  0  0
  1  2  2  0  0  0  0
  2  3  1  0  0  0  0
  2  6  1  0  0  0  0
  2  9  1  0  0  0  0
  3  4  1  0  0  0  0
  4  5  1  0  0  0  0
  6  7  1  0  0  0  0
  7  8  1  0  0  0  0
  9 19  1  0  0  0  0
  9 10  1  0  0  0  0
 10 11  1  0  0  0  0
 11 12  1  0  0  0  0
 12 13  1  0  0  0  0
 13 19  2  0  0  0  0
 13 14  1  0  0  0  0
 14 15  2  0  0  0  0
 15 16  1  0  0  0  0
 16 17  1  0  0  0  0
 16 18  2  0  0  0  0
 18 19  1  0  0  0  0
M  END
> <NMREDATA_VERSION>
1.1

> <NMREDATA_LEVEL>
0

> <NMREDATA_SOLVENT>
CDCl3

> <NMREDATA_FORMULA>
C13H19BrNO3P

> <NMREDATA_SMILES>
CCOP(=O)(C1NCCc2c1cc(Br)cc2)OCC

> <NMREDATA_ASSIGNMENT>
P2, 23.70, 2

> <NMREDATA_1D_31P>
Larmor=162
23.70, L=P2

$$$$
