
 OpenBabel06112616442D

 79 85  0  0  0  0  0  0  0  0999 V2000
    4.5000   -1.8660    0.0000 O   0  0  0  0  0  0  0  0  0  0  0  0
    4.0000   -1.0000    0.0000 C   0  0  0  0  0  0  0  0  0  0  0  0
    3.0000   -1.0000    0.0000 O   0  0  0  0  0  0  0  0  0  0  0  0
    4.5000   -0.1340    0.0000 C   0  0  0  0  0  0  0  0  0  0  0  0
    4.0000    0.7321    0.0000 C   0  0  0  0  0  0  0  0  0  0  0  0
    4.5000    1.5981    0.0000 C   0  0  0  0  0  0  0  0  0  0  0  0
    4.0000    2.4641    0.0000 O   0  0  0  0  0  0  0  0  0  0  0  0
    3.0000    2.4641    0.0000 C   0  0  0  0  0  0  0  0  0  0  0  0
    2.5000    1.5981    0.0000 C   0  0  0  0  0  0  0  0  0  0  0  0
    3.0000    0.7321    0.0000 O   0  0  0  0  0  0  0  0  0  0  0  0
    2.5000   -0.1340    0.0000 C   0  0  0  0  0  0  0  0  0  0  0  0
    1.5000   -0.1340    0.0000 C   0  0  0  0  0  0  0  0  0  0  0  0
    1.0000   -1.0000    0.0000 O   0  0  0  0  0  0  0  0  0  0  0  0
    0.0000   -1.0000    0.0000 P   0  0  0  0  0  0  0  0  0  0  0  0
    0.0000   -2.0000    0.0000 O   0  0  0  0  0  0  0  0  0  0  0  0
   -1.0000   -1.0000    0.0000 O   0  0  0  0  0  0  0  0  0  0  0  0
   -1.5000   -1.8660    0.0000 C   0  0  0  0  0  0  0  0  0  0  0  0
   -2.5000   -1.8660    0.0000 C   0  0  0  0  0  0  0  0  0  0  0  0
   -3.0000   -2.7321    0.0000 C   0  0  0  0  0  0  0  0  0  0  0  0
   -2.5000   -3.5981    0.0000 C   0  0  0  0  0  0  0  0  0  0  0  0
   -1.5000   -3.5981    0.0000 C   0  0  0  0  0  0  0  0  0  0  0  0
   -1.0000   -2.7321    0.0000 C   0  0  0  0  0  0  0  0  0  0  0  0
    0.0000    0.0000    0.0000 O   0  0  0  0  0  0  0  0  0  0  0  0
   -0.8660    0.5000    0.0000 C   0  0  0  0  0  0  0  0  0  0  0  0
   -0.8660    1.5000    0.0000 C   0  0  0  0  0  0  0  0  0  0  0  0
   -1.7321    2.0000    0.0000 C   0  0  0  0  0  0  0  0  0  0  0  0
   -2.5981    1.5000    0.0000 C   0  0  0  0  0  0  0  0  0  0  0  0
   -2.5981    0.5000    0.0000 C   0  0  0  0  0  0  0  0  0  0  0  0
   -1.7321    0.0000    0.0000 C   0  0  0  0  0  0  0  0  0  0  0  0
    5.5000    1.5981    0.0000 C   0  0  0  0  0  0  0  0  0  0  0  0
    6.0000    2.4641    0.0000 O   0  0  0  0  0  0  0  0  0  0  0  0
    7.0000    2.4641    0.0000 C   0  0  0  0  0  0  0  0  0  0  0  0
    7.5000    3.3301    0.0000 C   0  0  0  0  0  0  0  0  0  0  0  0
    7.0000    4.1962    0.0000 O   0  0  0  0  0  0  0  0  0  0  0  0
    7.5000    5.0622    0.0000 C   0  0  0  0  0  0  0  0  0  0  0  0
    7.0000    5.9282    0.0000 C   0  0  0  0  0  0  0  0  0  0  0  0
    6.0000    5.9282    0.0000 O   0  0  0  0  0  0  0  0  0  0  0  0
    5.5000    6.7942    0.0000 P   0  0  0  0  0  0  0  0  0  0  0  0
    6.3660    7.2942    0.0000 O   0  0  0  0  0  0  0  0  0  0  0  0
    5.0000    7.6603    0.0000 O   0  0  0  0  0  0  0  0  0  0  0  0
    5.5000    8.5263    0.0000 C   0  0  0  0  0  0  0  0  0  0  0  0
    6.5000    8.5263    0.0000 C   0  0  0  0  0  0  0  0  0  0  0  0
    7.0000    9.3923    0.0000 C   0  0  0  0  0  0  0  0  0  0  0  0
    6.5000   10.2583    0.0000 C   0  0  0  0  0  0  0  0  0  0  0  0
    5.5000   10.2583    0.0000 C   0  0  0  0  0  0  0  0  0  0  0  0
    5.0000    9.3923    0.0000 C   0  0  0  0  0  0  0  0  0  0  0  0
    4.6340    6.2942    0.0000 O   0  0  0  0  0  0  0  0  0  0  0  0
    3.7679    6.7942    0.0000 C   0  0  0  0  0  0  0  0  0  0  0  0
    2.9019    6.2942    0.0000 C   0  0  0  0  0  0  0  0  0  0  0  0
    2.0359    6.7942    0.0000 C   0  0  0  0  0  0  0  0  0  0  0  0
    2.0359    7.7942    0.0000 C   0  0  0  0  0  0  0  0  0  0  0  0
    2.9019    8.2942    0.0000 C   0  0  0  0  0  0  0  0  0  0  0  0
    3.7679    7.7942    0.0000 C   0  0  0  0  0  0  0  0  0  0  0  0
    6.0000    0.7321    0.0000 C   0  0  0  0  0  0  0  0  0  0  0  0
    7.0000    0.7321    0.0000 O   0  0  0  0  0  0  0  0  0  0  0  0
    7.5000    1.5981    0.0000 C   0  0  0  0  0  0  0  0  0  0  0  0
    8.5000    1.5981    0.0000 C   0  0  0  0  0  0  0  0  0  0  0  0
    9.0000    0.7321    0.0000 O   0  0  0  0  0  0  0  0  0  0  0  0
   10.0000    0.7321    0.0000 C   0  0  0  0  0  0  0  0  0  0  0  0
   10.5000   -0.1340    0.0000 C   0  0  0  0  0  0  0  0  0  0  0  0
   11.5000   -0.1340    0.0000 O   0  0  0  0  0  0  0  0  0  0  0  0
   12.0000   -1.0000    0.0000 P   0  0  0  0  0  0  0  0  0  0  0  0
   12.8660   -0.5000    0.0000 O   0  0  0  0  0  0  0  0  0  0  0  0
   12.5000   -1.8660    0.0000 O   0  0  0  0  0  0  0  0  0  0  0  0
   13.5000   -1.8660    0.0000 C   0  0  0  0  0  0  0  0  0  0  0  0
   14.0000   -2.7321    0.0000 C   0  0  0  0  0  0  0  0  0  0  0  0
   15.0000   -2.7321    0.0000 C   0  0  0  0  0  0  0  0  0  0  0  0
   15.5000   -1.8660    0.0000 C   0  0  0  0  0  0  0  0  0  0  0  0
   15.0000   -1.0000    0.0000 C   0  0  0  0  0  0  0  0  0  0  0  0
   14.0000   -1.0000    0.0000 C   0  0  0  0  0  0  0  0  0  0  0  0
   11.1340   -1.5000    0.0000 O   0  0  0  0  0  0  0  0  0  0  0  0
   11.1340   -2.5000    0.0000 C   0  0  0  0  0  0  0  0  0  0  0  0
   10.2679   -3.0000    0.0000 C   0  0  0  0  0  0  0  0  0  0  0  0
   10.2679   -4.0000    0.0000 C   0  0  0  0  0  0  0  0  0  0  0  0
   11.1340   -4.5000    0.0000 C   0  0  0  0  0  0  0  0  0  0  0  0
   12.0000   -4.0000    0.0000 C   0  0  0  0  0  0  0  0  0  0  0  0
   12.0000   -3.0000    0.0000 C   0  0  0  0  0  0  0  0  0  0  0  0
    5.5000   -0.1340    0.0000 C   0  0  0  0  0  0  0  0  0  0  0  0
    4.0000   -2.7321    0.0000 C   0  0  0  0  0  0  0  0  0  0  0  0
  1  2  1  0  0  0  0
  1 79  1  0  0  0  0
  2  3  2  0  0  0  0
  2  4  1  0  0  0  0
  4 78  2  0  0  0  0
  4  5  1  0  0  0  0
  5  6  2  0  0  0  0
  6  7  1  0  0  0  0
  6 30  1  0  0  0  0
  7  8  1  0  0  0  0
  8  9  1  0  0  0  0
  9 10  1  0  0  0  0
 10 11  1  0  0  0  0
 11 12  1  0  0  0  0
 12 13  1  0  0  0  0
 13 14  1  0  0  0  0
 14 15  2  0  0  0  0
 14 16  1  0  0  0  0
 14 23  1  0  0  0  0
 16 17  1  0  0  0  0
 17 22  2  0  0  0  0
 17 18  1  0  0  0  0
 18 19  2  0  0  0  0
 19 20  1  0  0  0  0
 20 21  2  0  0  0  0
 21 22  1  0  0  0  0
 23 24  1  0  0  0  0
 24 29  2  0  0  0  0
 24 25  1  0  0  0  0
 25 26  2  0  0  0  0
 26 27  1  0  0  0  0
 27 28  2  0  0  0  0
 28 29  1  0  0  0  0
 30 31  1  0  0  0  0
 30 54  2  0  0  0  0
 31 32  1  0  0  0  0
 32 33  1  0  0  0  0
 33 34  1  0  0  0  0
 34 35  1  0  0  0  0
 35 36  1  0  0  0  0
 36 37  1  0  0  0  0
 37 38  1  0  0  0  0
 38 39  2  0  0  0  0
 38 40  1  0  0  0  0
 38 47  1  0  0  0  0
 40 41  1  0  0  0  0
 41 46  2  0  0  0  0
 41 42  1  0  0  0  0
 42 43  2  0  0  0  0
 43 44  1  0  0  0  0
 44 45  2  0  0  0  0
 45 46  1  0  0  0  0
 47 48  1  0  0  0  0
 48 53  2  0  0  0  0
 48 49  1  0  0  0  0
 49 50  2  0  0  0  0
 50 51  1  0  0  0  0
 51 52  2  0  0  0  0
 52 53  1  0  0  0  0
 54 55  1  0  0  0  0
 54 78  1  0  0  0  0
 55 56  1  0  0  0  0
 56 57  1  0  0  0  0
 57 58  1  0  0  0  0
 58 59  1  0  0  0  0
 59 60  1  0  0  0  0
 60 61  1  0  0  0  0
 61 62  1  0  0  0  0
 62 63  2  0  0  0  0
 62 64  1  0  0  0  0
 62 71  1  0  0  0  0
 64 65  1  0  0  0  0
 65 70  2  0  0  0  0
 65 66  1  0  0  0  0
 66 67  2  0  0  0  0
 67 68  1  0  0  0  0
 68 69  2  0  0  0  0
 69 70  1  0  0  0  0
 71 72  1  0  0  0  0
 72 77  2  0  0  0  0
 72 73  1  0  0  0  0
 73 74  2  0  0  0  0
 74 75  1  0  0  0  0
 75 76  2  0  0  0  0
 76 77  1  0  0  0  0
M  END
> <NMREDATA_VERSION>
1.1

> <NMREDATA_LEVEL>
0

> <NMREDATA_SOLVENT>
CDCl3

> <NMREDATA_FORMULA>
C56H59O20P3

> <NMREDATA_SMILES>
COC(=O)c1cc(OCCOCCOP(=O)(Oc2ccccc2)Oc2ccccc2)c(c(c1)OCCOCCOP(=O)(Oc1ccccc1)Oc1ccccc1)OCCOCCOP(=O)(Oc1ccccc1)Oc1ccccc1

> <NMREDATA_ASSIGNMENT>
P14, -10.79, 14
P38, -10.79, 38
P62, -10.79, 62

> <NMREDATA_1D_31P>
Larmor=161
-10.79, L=P14
-10.79, L=P38
-10.79, L=P62

$$$$
