
 OpenBabel06112616472D

 37 42  0  0  1  0  0  0  0  0999 V2000
   -4.7727   -1.9091    0.0000 C   0  0  0  0  0  0  0  0  0  0  0  0
   -3.8182   -1.9091    0.0000 C   0  0  0  0  0  0  0  0  0  0  0  0
   -3.3409   -1.0824    0.0000 C   0  0  0  0  0  0  0  0  0  0  0  0
   -2.3864   -1.0824    0.0000 C   0  0  0  0  0  0  0  0  0  0  0  0
   -1.9091   -1.9091    0.0000 C   0  0  0  0  0  0  0  0  0  0  0  0
    0.0000   -1.9091    0.0000 P   0  0  0  0  0  0  0  0  0  0  0  0
    0.0000   -2.8636    0.0000 O   0  0  0  0  0  0  0  0  0  0  0  0
    0.9545   -1.9091    0.0000 C   0  0  0  0  0  0  0  0  0  0  0  0
    1.4318   -1.0824    0.0000 C   0  0  0  0  0  0  0  0  0  0  0  0
    2.3864   -1.0824    0.0000 C   0  0  0  0  0  0  0  0  0  0  0  0
    2.8636   -1.9091    0.0000 C   0  0  0  0  0  0  0  0  0  0  0  0
    3.8182   -1.9091    0.0000 C   0  0  0  0  0  0  0  0  0  0  0  0
    2.3864   -2.7358    0.0000 C   0  0  0  0  0  0  0  0  0  0  0  0
    1.4318   -2.7358    0.0000 C   0  0  0  0  0  0  0  0  0  0  0  0
    0.0000    0.0000    0.0000 C   0  0  1  0  0  0  0  0  0  0  0  0
    0.8267    0.4773    0.0000 C   0  0  0  0  0  0  0  0  0  0  0  0
    0.8267    1.4318    0.0000 C   0  0  0  0  0  0  0  0  0  0  0  0
    1.6533    1.9091    0.0000 C   0  0  0  0  0  0  0  0  0  0  0  0
    2.4800    1.4318    0.0000 C   0  0  0  0  0  0  0  0  0  0  0  0
    3.3066    1.9091    0.0000 C   0  0  0  0  0  0  0  0  0  0  0  0
    4.1333    1.4318    0.0000 C   0  0  0  0  0  0  0  0  0  0  0  0
    4.1333    0.4773    0.0000 C   0  0  0  0  0  0  0  0  0  0  0  0
    3.3066    0.0000    0.0000 C   0  0  0  0  0  0  0  0  0  0  0  0
    2.4800    0.4773    0.0000 C   0  0  0  0  0  0  0  0  0  0  0  0
    1.6533    0.0000    0.0000 C   0  0  0  0  0  0  0  0  0  0  0  0
   -0.8267    0.4773    0.0000 C   0  0  0  0  0  0  0  0  0  0  0  0
   -1.6987    0.0890    0.0000 C   0  0  0  0  0  0  0  0  0  0  0  0
   -1.8971   -0.8447    0.0000 C   0  0  0  0  0  0  0  0  0  0  0  0
   -2.3374    0.7984    0.0000 N   0  0  0  0  0  0  0  0  0  0  0  0
   -1.8601    1.6251    0.0000 C   0  0  0  0  0  0  0  0  0  0  0  0
   -2.1551    2.5329    0.0000 C   0  0  0  0  0  0  0  0  0  0  0  0
   -1.5164    3.2422    0.0000 C   0  0  0  0  0  0  0  0  0  0  0  0
   -0.5827    3.0438    0.0000 C   0  0  0  0  0  0  0  0  0  0  0  0
   -0.2877    2.1360    0.0000 C   0  0  0  0  0  0  0  0  0  0  0  0
   -0.9264    1.4266    0.0000 C   0  0  0  0  0  0  0  0  0  0  0  0
   -2.3864   -2.7358    0.0000 C   0  0  0  0  0  0  0  0  0  0  0  0
   -3.3409   -2.7358    0.0000 C   0  0  0  0  0  0  0  0  0  0  0  0
  1  2  1  0  0  0  0
  2 37  2  0  0  0  0
  2  3  1  0  0  0  0
  3  4  2  0  0  0  0
  4  5  1  0  0  0  0
  5  6  1  0  0  0  0
  5 36  2  0  0  0  0
  6  7  2  0  0  0  0
  6  8  1  0  0  0  0
  8 14  2  0  0  0  0
  8  9  1  0  0  0  0
  9 10  2  0  0  0  0
 10 11  1  0  0  0  0
 11 12  1  0  0  0  0
 11 13  2  0  0  0  0
 13 14  1  0  0  0  0
 15  6  1  6  0  0  0
 15 16  1  0  0  0  0
 15 26  1  0  0  0  0
 16 25  2  0  0  0  0
 16 17  1  0  0  0  0
 17 18  2  0  0  0  0
 18 19  1  0  0  0  0
 19 24  2  0  0  0  0
 19 20  1  0  0  0  0
 20 21  2  0  0  0  0
 21 22  1  0  0  0  0
 22 23  2  0  0  0  0
 23 24  1  0  0  0  0
 24 25  1  0  0  0  0
 26 35  1  0  0  0  0
 26 27  2  0  0  0  0
 27 28  1  0  0  0  0
 27 29  1  0  0  0  0
 29 30  1  0  0  0  0
 30 35  2  0  0  0  0
 30 31  1  0  0  0  0
 31 32  2  0  0  0  0
 32 33  1  0  0  0  0
 33 34  2  0  0  0  0
 34 35  1  0  0  0  0
 36 37  1  0  0  0  0
M  END
> <NMREDATA_VERSION>
1.1

> <NMREDATA_LEVEL>
0

> <NMREDATA_SOLVENT>
DMSO-d6

> <NMREDATA_FORMULA>
C34H30NOP

> <NMREDATA_SMILES>
Cc1ccc(cc1)P(=O)([C@H](c1c(C)[nH]c2c1cccc2)c1ccc2c(c1)cccc2)c1ccc(cc1)C

> <NMREDATA_ASSIGNMENT>
P6, 30.42, 6

> <NMREDATA_1D_31P>
Larmor=162
30.42, L=P6

$$$$
