
 OpenBabel06112616462D

 31 36  0  0  0  0  0  0  0  0999 V2000
    4.2429    0.8947    0.0000 O   0  0  0  0  0  0  0  0  0  0  0  0
    4.3548   -0.0990    0.0000 P   0  0  3  0  0  0  0  0  0  0  0  0
    5.2554   -0.5338    0.0000 O   0  0  0  0  0  0  0  0  0  0  0  0
    6.0822    0.0287    0.0000 C   0  0  0  0  0  0  0  0  0  0  0  0
    6.0084    1.0260    0.0000 C   0  0  0  0  0  0  0  0  0  0  0  0
    6.8352    1.5885    0.0000 C   0  0  0  0  0  0  0  0  0  0  0  0
    7.7358    1.1537    0.0000 C   0  0  0  0  0  0  0  0  0  0  0  0
    7.8095    0.1564    0.0000 C   0  0  0  0  0  0  0  0  0  0  0  0
    6.9827   -0.4061    0.0000 C   0  0  0  0  0  0  0  0  0  0  0  0
    7.0565   -1.4033    0.0000 C   0  0  0  0  0  0  0  0  0  0  0  0
    7.9570   -1.8381    0.0000 C   0  0  0  0  0  0  0  0  0  0  0  0
    8.7838   -1.2756    0.0000 C   0  0  0  0  0  0  0  0  0  0  0  0
    8.7100   -0.2783    0.0000 C   0  0  0  0  0  0  0  0  0  0  0  0
    4.7887   -1.0000    0.0000 O   0  0  0  0  0  0  0  0  0  0  0  0
    4.3548   -1.9010    0.0000 C   0  0  0  0  0  0  0  0  0  0  0  0
    5.0350   -2.6340    0.0000 C   0  0  0  0  0  0  0  0  0  0  0  0
    4.7403   -3.5896    0.0000 C   0  0  0  0  0  0  0  0  0  0  0  0
    3.7653   -3.8121    0.0000 C   0  0  0  0  0  0  0  0  0  0  0  0
    3.0852   -3.0791    0.0000 C   0  0  0  0  0  0  0  0  0  0  0  0
    3.3799   -2.1235    0.0000 C   0  0  0  0  0  0  0  0  0  0  0  0
    2.5981   -1.5000    0.0000 C   0  0  0  0  0  0  0  0  0  0  0  0
    1.7321   -2.0000    0.0000 C   0  0  0  0  0  0  0  0  0  0  0  0
    0.8660   -1.5000    0.0000 C   0  0  0  0  0  0  0  0  0  0  0  0
    0.8660   -0.5000    0.0000 C   0  0  0  0  0  0  0  0  0  0  0  0
    1.7321    0.0000    0.0000 C   0  0  0  0  0  0  0  0  0  0  0  0
    2.5981   -0.5000    0.0000 C   0  0  0  0  0  0  0  0  0  0  0  0
    3.3799    0.1235    0.0000 O   0  0  0  0  0  0  0  0  0  0  0  0
    1.7321    1.0000    0.0000 C   0  0  0  0  0  0  0  0  0  0  0  0
    0.8660    1.5000    0.0000 C   0  0  0  0  0  0  0  0  0  0  0  0
    0.0000    1.0000    0.0000 C   0  0  0  0  0  0  0  0  0  0  0  0
    0.0000    0.0000    0.0000 C   0  0  0  0  0  0  0  0  0  0  0  0
  1  2  2  0  0  0  0
  2 27  1  0  0  0  0
  2  3  1  0  0  0  0
  2 14  1  0  0  0  0
  3  4  1  0  0  0  0
  4  9  2  0  0  0  0
  4  5  1  0  0  0  0
  5  6  2  0  0  0  0
  6  7  1  0  0  0  0
  7  8  2  0  0  0  0
  8 13  1  0  0  0  0
  8  9  1  0  0  0  0
  9 10  1  0  0  0  0
 10 11  1  0  0  0  0
 11 12  1  0  0  0  0
 12 13  1  0  0  0  0
 14 15  1  0  0  0  0
 15 20  2  0  0  0  0
 15 16  1  0  0  0  0
 16 17  2  0  0  0  0
 17 18  1  0  0  0  0
 18 19  2  0  0  0  0
 19 20  1  0  0  0  0
 20 21  1  0  0  0  0
 21 26  2  0  0  0  0
 21 22  1  0  0  0  0
 22 23  2  0  0  0  0
 23 24  1  0  0  0  0
 24 31  1  0  0  0  0
 24 25  2  0  0  0  0
 25 26  1  0  0  0  0
 25 28  1  0  0  0  0
 26 27  1  0  0  0  0
 28 29  1  0  0  0  0
 29 30  1  0  0  0  0
 30 31  1  0  0  0  0
M  END
> <NMREDATA_VERSION>
1.1

> <NMREDATA_LEVEL>
0

> <NMREDATA_SOLVENT>
CDCl3

> <NMREDATA_FORMULA>
C26H25O4P

> <NMREDATA_SMILES>
O=P1(Oc2cccc3c2CCCC3)Oc2c3CCCCc3ccc2-c2c(O1)cccc2

> <NMREDATA_ASSIGNMENT>
P2, -4.07, 2

> <NMREDATA_1D_31P>
Larmor=162
-4.07, L=P2

$$$$
