
 OpenBabel06112616442D

 17 18  0  0  0  0  0  0  0  0999 V2000
   -0.9706    2.4945    0.0000 O   0  0  0  0  0  0  0  0  0  0  0  0
   -0.9706    1.4945    0.0000 P   0  0  3  0  0  0  0  0  0  0  0  0
   -1.8366    0.9945    0.0000 C   0  0  0  0  0  0  0  0  0  0  0  0
   -1.8366   -0.0055    0.0000 C   0  0  0  0  0  0  0  0  0  0  0  0
   -2.7026   -0.5055    0.0000 C   0  0  0  0  0  0  0  0  0  0  0  0
   -3.5686   -0.0055    0.0000 C   0  0  0  0  0  0  0  0  0  0  0  0
   -4.4347   -0.5055    0.0000 C   0  0  0  0  0  0  0  0  0  0  0  0
   -4.9347   -1.3715    0.0000 F   0  0  0  0  0  0  0  0  0  0  0  0
   -3.9347   -1.3715    0.0000 F   0  0  0  0  0  0  0  0  0  0  0  0
   -5.3007   -0.0055    0.0000 F   0  0  0  0  0  0  0  0  0  0  0  0
   -3.5686    0.9945    0.0000 C   0  0  0  0  0  0  0  0  0  0  0  0
   -2.7026    1.4945    0.0000 C   0  0  0  0  0  0  0  0  0  0  0  0
   -0.1045    0.9945    0.0000 C   0  0  0  0  0  0  0  0  0  0  0  0
    0.8090    1.4013    0.0000 C   0  0  0  0  0  0  0  0  0  0  0  0
    1.4781    0.6581    0.0000 C   0  0  0  0  0  0  0  0  0  0  0  0
    0.9781   -0.2079    0.0000 C   0  0  0  0  0  0  0  0  0  0  0  0
    0.0000    0.0000    0.0000 C   0  0  0  0  0  0  0  0  0  0  0  0
  1  2  2  0  0  0  0
  2  3  1  0  0  0  0
  2 13  1  0  0  0  0
  3 12  2  0  0  0  0
  3  4  1  0  0  0  0
  4  5  2  0  0  0  0
  5  6  1  0  0  0  0
  6  7  1  0  0  0  0
  6 11  2  0  0  0  0
  7  8  1  0  0  0  0
  7  9  1  0  0  0  0
  7 10  1  0  0  0  0
 11 12  1  0  0  0  0
 13 17  1  0  0  0  0
 13 14  1  0  0  0  0
 14 15  1  0  0  0  0
 15 16  1  0  0  0  0
 16 17  1  0  0  0  0
M  END
> <NMREDATA_VERSION>
1.1

> <NMREDATA_LEVEL>
0

> <NMREDATA_SOLVENT>
CDCl3

> <NMREDATA_FORMULA>
C12H13F3OP

> <NMREDATA_SMILES>
FC(c1ccc(cc1)P(=O)C1CCCC1)(F)F

> <NMREDATA_ASSIGNMENT>
P2, 32.86, 2

> <NMREDATA_1D_31P>
Larmor=202
32.86, L=P2

$$$$
