
 OpenBabel06112616462D

 41 46  0  0  0  0  0  0  0  0999 V2000
    0.7516   -0.4340    0.0000 C   0  0  0  0  0  0  0  0  0  0  0  0
    0.7516   -1.3019    0.0000 C   0  0  0  0  0  0  0  0  0  0  0  0
    0.0000   -1.7358    0.0000 C   0  0  0  0  0  0  0  0  0  0  0  0
   -0.7516   -1.3019    0.0000 C   0  0  0  0  0  0  0  0  0  0  0  0
   -1.5033   -1.7358    0.0000 P   0  0  0  0  0  0  0  0  0  0  0  0
   -2.2549   -1.3019    0.0000 C   0  0  0  0  0  0  0  0  0  0  0  0
   -3.0066   -1.7358    0.0000 C   0  0  0  0  0  0  0  0  0  0  0  0
   -3.7582   -1.3019    0.0000 C   0  0  0  0  0  0  0  0  0  0  0  0
   -3.7582   -0.4340    0.0000 C   0  0  0  0  0  0  0  0  0  0  0  0
   -3.0066    0.0000    0.0000 C   0  0  0  0  0  0  0  0  0  0  0  0
   -2.2549   -0.4340    0.0000 C   0  0  0  0  0  0  0  0  0  0  0  0
   -1.5033   -2.6038    0.0000 C   0  0  0  0  0  0  0  0  0  0  0  0
   -0.7516   -3.0377    0.0000 C   0  0  0  0  0  0  0  0  0  0  0  0
    5.2615    0.4340    0.0000 C   0  0  0  0  0  0  0  0  0  0  0  0
    6.0132    0.0000    0.0000 C   0  0  0  0  0  0  0  0  0  0  0  0
    6.0132   -0.8679    0.0000 C   0  0  0  0  0  0  0  0  0  0  0  0
    5.2615   -1.3019    0.0000 C   0  0  0  0  0  0  0  0  0  0  0  0
    5.2615   -2.1698    0.0000 C   0  0  0  0  0  0  0  0  0  0  0  0
    6.0132   -2.6038    0.0000 C   0  0  0  0  0  0  0  0  0  0  0  0
    6.0132   -3.4717    0.0000 O   0  0  0  0  0  0  0  0  0  0  0  0
    6.7648   -3.9057    0.0000 C   0  0  0  0  0  0  0  0  0  0  0  0
    6.7648   -2.1698    0.0000 C   0  0  0  0  0  0  0  0  0  0  0  0
    6.7648   -1.3019    0.0000 C   0  0  0  0  0  0  0  0  0  0  0  0
    6.7648    0.4340    0.0000 C   0  0  0  0  0  0  0  0  0  0  0  0
    6.7648    1.3019    0.0000 C   0  0  0  0  0  0  0  0  0  0  0  0
    6.0132    1.7358    0.0000 C   0  0  0  0  0  0  0  0  0  0  0  0
    5.2615    1.3019    0.0000 C   0  0  0  0  0  0  0  0  0  0  0  0
    4.5099    1.7358    0.0000 C   0  0  0  0  0  0  0  0  0  0  0  0
    4.5099    2.6038    0.0000 C   0  0  0  0  0  0  0  0  0  0  0  0
    3.7582    3.0377    0.0000 C   0  0  0  0  0  0  0  0  0  0  0  0
    3.0066    2.6038    0.0000 C   0  0  0  0  0  0  0  0  0  0  0  0
    2.2549    3.0377    0.0000 O   0  0  0  0  0  0  0  0  0  0  0  0
    2.2549    3.9057    0.0000 C   0  0  0  0  0  0  0  0  0  0  0  0
    3.0066    1.7358    0.0000 C   0  0  0  0  0  0  0  0  0  0  0  0
    3.7582    1.3019    0.0000 C   0  0  0  0  0  0  0  0  0  0  0  0
   -0.7516   -3.9057    0.0000 C   0  0  0  0  0  0  0  0  0  0  0  0
   -1.5033   -4.3396    0.0000 C   0  0  0  0  0  0  0  0  0  0  0  0
   -2.2549   -3.9057    0.0000 C   0  0  0  0  0  0  0  0  0  0  0  0
   -2.2549   -3.0377    0.0000 C   0  0  0  0  0  0  0  0  0  0  0  0
   -0.7516   -0.4340    0.0000 C   0  0  0  0  0  0  0  0  0  0  0  0
    0.0000    0.0000    0.0000 C   0  0  0  0  0  0  0  0  0  0  0  0
  1 41  1  0  0  0  0
  1  2  1  0  0  0  0
  2  3  1  0  0  0  0
  3  4  1  0  0  0  0
  4  5  1  0  0  0  0
  4 40  1  0  0  0  0
  5  6  1  0  0  0  0
  5 12  1  0  0  0  0
  6 11  1  0  0  0  0
  6  7  1  0  0  0  0
  7  8  1  0  0  0  0
  8  9  1  0  0  0  0
  9 10  1  0  0  0  0
 10 11  1  0  0  0  0
 12 39  2  0  0  0  0
 12 13  1  0  0  0  0
 13 14  1  0  0  0  0
 13 36  2  0  0  0  0
 14 27  2  0  0  0  0
 14 15  1  0  0  0  0
 15 16  1  0  0  0  0
 15 24  2  0  0  0  0
 16 23  2  0  0  0  0
 16 17  1  0  0  0  0
 17 18  2  0  0  0  0
 18 19  1  0  0  0  0
 19 20  1  0  0  0  0
 19 22  2  0  0  0  0
 20 21  1  0  0  0  0
 22 23  1  0  0  0  0
 24 25  1  0  0  0  0
 25 26  2  0  0  0  0
 26 27  1  0  0  0  0
 27 28  1  0  0  0  0
 28 35  2  0  0  0  0
 28 29  1  0  0  0  0
 29 30  2  0  0  0  0
 30 31  1  0  0  0  0
 31 32  1  0  0  0  0
 31 34  2  0  0  0  0
 32 33  1  0  0  0  0
 34 35  1  0  0  0  0
 36 37  1  0  0  0  0
 37 38  2  0  0  0  0
 38 39  1  0  0  0  0
 40 41  1  0  0  0  0
M  END
> <NMREDATA_VERSION>
1.1

> <NMREDATA_LEVEL>
0

> <NMREDATA_SOLVENT>
CDCl3

> <NMREDATA_FORMULA>
C38H43O2P

> <NMREDATA_SMILES>
COc1ccc(cc1)c1cccc(c1c1ccccc1P(C1CCCCC1)C1CCCCC1)c1ccc(cc1)OC

> <NMREDATA_ASSIGNMENT>
P5, -10.00, 5

> <NMREDATA_1D_31P>
Larmor=162
-10.00, L=P5

$$$$
