
 OpenBabel06112616472D

 40 42  0  0  1  0  0  0  0  0999 V2000
   -7.1591   -5.0878    0.0000 C   0  0  0  0  0  0  0  0  0  0  0  0
   -6.6818   -4.2612    0.0000 C   0  0  0  0  0  0  0  0  0  0  0  0
   -6.6818   -3.3066    0.0000 C   0  0  0  0  0  0  0  0  0  0  0  0
   -7.5085   -3.7839    0.0000 C   0  0  0  0  0  0  0  0  0  0  0  0
   -5.7273   -4.2612    0.0000 O   0  0  0  0  0  0  0  0  0  0  0  0
   -5.2500   -3.4345    0.0000 C   0  0  0  0  0  0  0  0  0  0  0  0
   -4.2955   -3.4345    0.0000 O   0  0  0  0  0  0  0  0  0  0  0  0
   -5.7273   -2.6079    0.0000 N   0  0  0  0  0  0  0  0  0  0  0  0
   -5.2500   -1.7812    0.0000 C   0  0  2  0  0  0  0  0  0  0  0  0
   -4.2955   -1.7812    0.0000 C   0  0  0  0  0  0  0  0  0  0  0  0
   -3.8182   -2.6079    0.0000 N   0  0  0  0  0  0  0  0  0  0  0  0
   -2.8636   -2.6079    0.0000 C   0  0  2  0  0  0  0  0  0  0  0  0
   -2.3864   -3.4345    0.0000 C   0  0  0  0  0  0  0  0  0  0  0  0
   -2.8636   -4.2612    0.0000 C   0  0  0  0  0  0  0  0  0  0  0  0
   -1.4318   -3.4345    0.0000 C   0  0  0  0  0  0  0  0  0  0  0  0
   -1.9091   -0.9545    0.0000 C   0  0  0  0  0  0  0  0  0  0  0  0
    0.0000   -0.9545    0.0000 P   0  3  0  0  0  0  0  0  0  0  0  0
    0.0000   -1.9091    0.0000 C   0  0  0  0  0  0  0  0  0  0  0  0
    0.8267   -2.3864    0.0000 C   0  0  0  0  0  0  0  0  0  0  0  0
    0.8267   -3.3409    0.0000 C   0  0  0  0  0  0  0  0  0  0  0  0
    0.0000   -3.8182    0.0000 C   0  0  0  0  0  0  0  0  0  0  0  0
   -0.8267   -3.3409    0.0000 C   0  0  0  0  0  0  0  0  0  0  0  0
   -0.8267   -2.3864    0.0000 C   0  0  0  0  0  0  0  0  0  0  0  0
    0.9545   -0.9545    0.0000 C   0  0  0  0  0  0  0  0  0  0  0  0
    1.4318   -0.1279    0.0000 C   0  0  0  0  0  0  0  0  0  0  0  0
    2.3864   -0.1279    0.0000 C   0  0  0  0  0  0  0  0  0  0  0  0
    2.8636   -0.9545    0.0000 C   0  0  0  0  0  0  0  0  0  0  0  0
    2.3864   -1.7812    0.0000 C   0  0  0  0  0  0  0  0  0  0  0  0
    1.4318   -1.7812    0.0000 C   0  0  0  0  0  0  0  0  0  0  0  0
    0.0000    0.0000    0.0000 C   0  0  0  0  0  0  0  0  0  0  0  0
   -0.8267    0.4773    0.0000 C   0  0  0  0  0  0  0  0  0  0  0  0
   -0.8267    1.4318    0.0000 C   0  0  0  0  0  0  0  0  0  0  0  0
    0.0000    1.9091    0.0000 C   0  0  0  0  0  0  0  0  0  0  0  0
    0.8267    1.4318    0.0000 C   0  0  0  0  0  0  0  0  0  0  0  0
    0.8267    0.4773    0.0000 C   0  0  0  0  0  0  0  0  0  0  0  0
   -3.8182   -0.9545    0.0000 O   0  0  0  0  0  0  0  0  0  0  0  0
   -5.7273   -0.9545    0.0000 C   0  0  0  0  0  0  0  0  0  0  0  0
   -6.5539   -0.4773    0.0000 C   0  0  0  0  0  0  0  0  0  0  0  0
   -6.5539   -1.4318    0.0000 C   0  0  0  0  0  0  0  0  0  0  0  0
   -5.2500   -0.1279    0.0000 C   0  0  0  0  0  0  0  0  0  0  0  0
  1  2  1  0  0  0  0
  2  3  1  0  0  0  0
  2  4  1  0  0  0  0
  2  5  1  0  0  0  0
  5  6  1  0  0  0  0
  6  7  2  0  0  0  0
  6  8  1  0  0  0  0
  9  8  1  1  0  0  0
  9 10  1  0  0  0  0
  9 37  1  0  0  0  0
 10 11  1  0  0  0  0
 10 36  2  0  0  0  0
 11 12  1  0  0  0  0
 12 13  1  0  0  0  0
 12 16  1  1  0  0  0
 13 14  1  0  0  0  0
 13 15  1  0  0  0  0
 16 17  1  0  0  0  0
 17 18  1  0  0  0  0
 17 24  1  0  0  0  0
 17 30  1  0  0  0  0
 18 23  2  0  0  0  0
 18 19  1  0  0  0  0
 19 20  2  0  0  0  0
 20 21  1  0  0  0  0
 21 22  2  0  0  0  0
 22 23  1  0  0  0  0
 24 29  2  0  0  0  0
 24 25  1  0  0  0  0
 25 26  2  0  0  0  0
 26 27  1  0  0  0  0
 27 28  2  0  0  0  0
 28 29  1  0  0  0  0
 30 35  2  0  0  0  0
 30 31  1  0  0  0  0
 31 32  2  0  0  0  0
 32 33  1  0  0  0  0
 33 34  2  0  0  0  0
 34 35  1  0  0  0  0
 37 38  1  0  0  0  0
 37 39  1  0  0  0  0
 37 40  1  0  0  0  0
M  END
> <NMREDATA_VERSION>
1.1

> <NMREDATA_LEVEL>
0

> <NMREDATA_SOLVENT>
CDCl3

> <NMREDATA_FORMULA>
C34H46N2O3P

> <NMREDATA_SMILES>
O=C(OC(C)(C)C)N[C@@H](C(C)(C)C)C(=O)N[C@H](C(C)C)C[P+](c1ccccc1)(c1ccccc1)c1ccccc1

> <NMREDATA_ASSIGNMENT>
P17, 23.90, 17

> <NMREDATA_1D_31P>
Larmor=162
23.90, L=P17

$$$$
