
 OpenBabel06112616482D

 30 34  0  0  1  0  0  0  0  0999 V2000
    0.9775    0.0000    0.0000 P   0  0  0  0  0  0  0  0  0  0  0  0
    0.9775   -0.9775    0.0000 C   0  0  0  0  0  0  0  0  0  0  0  0
    1.9550   -0.9775    0.0000 C   0  0  0  0  0  0  0  0  0  0  0  0
    2.4439   -0.1305    0.0000 C   0  0  0  0  0  0  0  0  0  0  0  0
    3.4214   -0.1301    0.0000 C   0  0  0  0  0  0  0  0  0  0  0  0
    3.9100   -0.9767    0.0000 C   0  0  0  0  0  0  0  0  0  0  0  0
    3.4211   -1.8237    0.0000 C   0  0  0  0  0  0  0  0  0  0  0  0
    2.4436   -1.8241    0.0000 C   0  0  0  0  0  0  0  0  0  0  0  0
    3.9103   -2.6706    0.0000 C   0  0  0  0  0  0  0  0  0  0  0  0
    4.8883   -2.6705    0.0000 C   0  0  0  0  0  0  0  0  0  0  0  0
    5.3772   -1.8234    0.0000 C   0  0  2  0  0  0  0  0  0  0  0  0
    4.8880   -0.9765    0.0000 C   0  0  2  0  0  0  0  0  0  0  0  0
    5.3766   -0.1300    0.0000 C   0  0  0  0  0  0  0  0  0  0  0  0
    6.3546   -0.1299    0.0000 C   0  0  0  0  0  0  0  0  0  0  0  0
    6.8437   -0.9768    0.0000 C   0  0  2  0  0  0  0  0  0  0  0  0
    7.3436   -0.1107    0.0000 C   0  0  0  0  0  0  0  0  0  0  0  0
    7.8218   -0.9767    0.0000 C   0  0  0  0  0  0  0  0  0  0  0  0
    8.3216   -0.1106    0.0000 O   0  0  0  0  0  0  0  0  0  0  0  0
    8.3099   -1.8230    0.0000 C   0  0  0  0  0  0  0  0  0  0  0  0
    7.8213   -2.6695    0.0000 C   0  0  0  0  0  0  0  0  0  0  0  0
    6.3552   -1.8233    0.0000 C   0  0  1  0  0  0  0  0  0  0  0  0
    0.1310   -1.4662    0.0000 C   0  0  0  0  0  0  0  0  0  0  0  0
    0.9775   -1.9550    0.0000 C   0  0  0  0  0  0  0  0  0  0  0  0
    1.9550    0.0000    0.0000 O   0  0  0  0  0  0  0  0  0  0  0  0
    2.4437    0.8465    0.0000 C   0  0  0  0  0  0  0  0  0  0  0  0
    1.9550    1.6931    0.0000 C   0  0  0  0  0  0  0  0  0  0  0  0
    0.9775    0.9775    0.0000 O   0  0  0  0  0  0  0  0  0  0  0  0
    0.0000    0.0000    0.0000 O   0  0  0  0  0  0  0  0  0  0  0  0
   -0.4887   -0.8465    0.0000 C   0  0  0  0  0  0  0  0  0  0  0  0
   -1.4662   -0.8465    0.0000 C   0  0  0  0  0  0  0  0  0  0  0  0
  1  2  1  0  0  0  0
  1 24  1  0  0  0  0
  1 27  2  0  0  0  0
  1 28  1  0  0  0  0
  2 23  1  0  0  0  0
  2  3  1  0  0  0  0
  2 22  1  0  0  0  0
  3  8  2  0  0  0  0
  3  4  1  0  0  0  0
  4  5  2  0  0  0  0
  5  6  1  0  0  0  0
  6 12  1  0  0  0  0
  6  7  2  0  0  0  0
  7  8  1  0  0  0  0
  7  9  1  0  0  0  0
  9 10  1  0  0  0  0
 11 10  1  6  0  0  0
 11 12  1  0  0  0  0
 11 21  1  0  0  0  0
 12 13  1  1  0  0  0
 13 14  1  0  0  0  0
 14 15  1  0  0  0  0
 15 21  1  0  0  0  0
 15 16  1  1  0  0  0
 15 17  1  0  0  0  0
 17 18  2  0  0  0  0
 17 19  1  0  0  0  0
 19 20  1  0  0  0  0
 21 20  1  1  0  0  0
 22 23  1  0  0  0  0
 24 25  1  0  0  0  0
 25 26  1  0  0  0  0
 28 29  1  0  0  0  0
 29 30  1  0  0  0  0
M  END
> <NMREDATA_VERSION>
1.1

> <NMREDATA_LEVEL>
0

> <NMREDATA_SOLVENT>
CDCl3

> <NMREDATA_FORMULA>
C25H35O4P

> <NMREDATA_SMILES>
CCOP(=O)(C1(CC1)c1ccc2c(c1)CC[C@@H]1[C@@H]2CC[C@]2([C@H]1CCC2=O)C)OCC

> <NMREDATA_ASSIGNMENT>
P1, 28.50, 1

> <NMREDATA_1D_31P>
Larmor=202
28.50, L=P1

$$$$
