
 OpenBabel06112616452D

 35 40  0  0  1  0  0  0  0  0999 V2000
   -7.7806   -3.9261    0.0000 O   0  0  0  0  0  0  0  0  0  0  0  0
   -7.4773   -4.8593    0.0000 C   0  0  0  0  0  0  0  0  0  0  0  0
   -6.9309   -3.4353    0.0000 C   0  0  0  0  0  0  0  0  0  0  0  0
   -6.0806   -3.9262    0.0000 C   0  0  0  0  0  0  0  0  0  0  0  0
   -5.2306   -3.4358    0.0000 C   0  0  0  0  0  0  0  0  0  0  0  0
   -5.2309   -2.4544    0.0000 C   0  0  0  0  0  0  0  0  0  0  0  0
   -6.0811   -1.9635    0.0000 C   0  0  0  0  0  0  0  0  0  0  0  0
   -6.9311   -2.4540    0.0000 C   0  0  0  0  0  0  0  0  0  0  0  0
   -6.0811   -0.9817    0.0000 C   0  0  0  0  0  0  0  0  0  0  0  0
   -5.2308   -0.4908    0.0000 C   0  0  0  0  0  0  0  0  0  0  0  0
   -4.3806   -0.9817    0.0000 C   0  0  2  0  0  0  0  0  0  0  0  0
   -4.3806   -1.9635    0.0000 C   0  0  2  0  0  0  0  0  0  0  0  0
   -3.5308   -2.4541    0.0000 C   0  0  0  0  0  0  0  0  0  0  0  0
   -2.6805   -1.9632    0.0000 C   0  0  0  0  0  0  0  0  0  0  0  0
   -2.6805   -0.9813    0.0000 C   0  0  2  0  0  0  0  0  0  0  0  0
   -1.8022   -1.4884    0.0000 C   0  0  0  0  0  0  0  0  0  0  0  0
   -1.8302   -0.4904    0.0000 C   0  0  0  0  0  0  0  0  0  0  0  0
   -0.9808   -0.9808    0.0000 C   0  0  0  0  0  0  0  0  0  0  0  0
    0.0000   -0.9808    0.0000 P   0  0  0  0  0  0  0  0  0  0  0  0
    0.0000   -1.9616    0.0000 O   0  0  0  0  0  0  0  0  0  0  0  0
    0.9808   -0.9808    0.0000 C   0  0  0  0  0  0  0  0  0  0  0  0
    1.4712   -0.1314    0.0000 C   0  0  0  0  0  0  0  0  0  0  0  0
    2.4520   -0.1314    0.0000 C   0  0  0  0  0  0  0  0  0  0  0  0
    2.9424   -0.9808    0.0000 C   0  0  0  0  0  0  0  0  0  0  0  0
    2.4520   -1.8302    0.0000 C   0  0  0  0  0  0  0  0  0  0  0  0
    1.4712   -1.8302    0.0000 C   0  0  0  0  0  0  0  0  0  0  0  0
    0.0000    0.0000    0.0000 C   0  0  0  0  0  0  0  0  0  0  0  0
   -0.8494    0.4904    0.0000 C   0  0  0  0  0  0  0  0  0  0  0  0
   -0.8494    1.4712    0.0000 C   0  0  0  0  0  0  0  0  0  0  0  0
    0.0000    1.9616    0.0000 C   0  0  0  0  0  0  0  0  0  0  0  0
    0.8494    1.4712    0.0000 C   0  0  0  0  0  0  0  0  0  0  0  0
    0.8494    0.4904    0.0000 C   0  0  0  0  0  0  0  0  0  0  0  0
   -1.8308    0.4904    0.0000 C   0  0  0  0  0  0  0  0  0  0  0  0
   -2.6806    0.9810    0.0000 C   0  0  0  0  0  0  0  0  0  0  0  0
   -3.5303   -0.4907    0.0000 C   0  0  1  0  0  0  0  0  0  0  0  0
  1  2  1  0  0  0  0
  1  3  1  0  0  0  0
  3  8  2  0  0  0  0
  3  4  1  0  0  0  0
  4  5  2  0  0  0  0
  5  6  1  0  0  0  0
  6 12  1  0  0  0  0
  6  7  2  0  0  0  0
  7  8  1  0  0  0  0
  7  9  1  0  0  0  0
  9 10  1  0  0  0  0
 11 10  1  1  0  0  0
 11 12  1  0  0  0  0
 11 35  1  0  0  0  0
 12 13  1  6  0  0  0
 13 14  1  0  0  0  0
 14 15  1  0  0  0  0
 15 35  1  0  0  0  0
 15 16  1  6  0  0  0
 15 17  1  0  0  0  0
 17 18  1  0  0  0  0
 17 33  2  0  0  0  0
 18 19  1  0  0  0  0
 19 20  2  0  0  0  0
 19 21  1  0  0  0  0
 19 27  1  0  0  0  0
 21 26  2  0  0  0  0
 21 22  1  0  0  0  0
 22 23  2  0  0  0  0
 23 24  1  0  0  0  0
 24 25  2  0  0  0  0
 25 26  1  0  0  0  0
 27 32  2  0  0  0  0
 27 28  1  0  0  0  0
 28 29  2  0  0  0  0
 29 30  1  0  0  0  0
 30 31  2  0  0  0  0
 31 32  1  0  0  0  0
 33 34  1  0  0  0  0
 35 34  1  6  0  0  0
M  END
> <NMREDATA_VERSION>
1.1

> <NMREDATA_LEVEL>
0

> <NMREDATA_SOLVENT>
CDCl3

> <NMREDATA_FORMULA>
C32H35O2P

> <NMREDATA_SMILES>
COc1ccc2c(c1)CC[C@@H]1[C@@H]2CC[C@]2([C@H]1CC=C2CP(=O)(c1ccccc1)c1ccccc1)C

> <NMREDATA_ASSIGNMENT>
P19, 29.40, 19

> <NMREDATA_1D_31P>
Larmor=162
29.40, L=P19

$$$$
