
 OpenBabel06112616482D

 28 28  0  0  1  0  0  0  0  0999 V2000
    3.0353   -5.0281    0.0000 C    0  0  0  0  0  0  0  0  0  0  0  0
    3.5023   -5.8369    0.0000 C    0  0  0  0  0  0  0  0  0  0  0  0
    4.4361   -5.8369    0.0000 C    0  0  0  0  0  0  0  0  0  0  0  0
    4.9031   -5.0281    0.0000 C    0  0  0  0  0  0  0  0  0  0  0  0
    5.8369   -5.0281    0.0000 P    0  3  0  0  0  0  0  0  0  0  0  0
    5.8369   -5.9620    0.0000 C    0  0  0  0  0  0  0  0  0  0  0  0
    6.6457   -6.4289    0.0000 C    0  0  0  0  0  0  0  0  0  0  0  0
    7.4544   -5.9620    0.0000 C    0  0  0  0  0  0  0  0  0  0  0  0
    8.2632   -6.4289    0.0000 C    0  0  0  0  0  0  0  0  0  0  0  0
    6.7708   -5.0281    0.0000 C    0  0  0  0  0  0  0  0  0  0  0  0
    7.2377   -4.2194    0.0000 C    0  0  0  0  0  0  0  0  0  0  0  0
    8.1716   -4.2194    0.0000 C    0  0  0  0  0  0  0  0  0  0  0  0
    8.6385   -3.4106    0.0000 C    0  0  0  0  0  0  0  0  0  0  0  0
    5.8369   -4.0943    0.0000 C    0  0  0  0  0  0  0  0  0  0  0  0
    5.0282   -3.6273    0.0000 C    0  0  0  0  0  0  0  0  0  0  0  0
    5.0282   -2.6935    0.0000 C    0  0  0  0  0  0  0  0  0  0  0  0
    4.2194   -2.2265    0.0000 C    0  0  0  0  0  0  0  0  0  0  0  0
    4.2194   -1.2927    0.0000 C    0  0  0  0  0  0  0  0  0  0  0  0
    2.3517   -1.2927    0.0000 B    0  0  0  0  0  0  0  0  0  0  0  0
    1.8848   -0.4836    0.0000 C    0  0  3  0  0  0  0  0  0  0  0  0
    0.9508   -0.4836    0.0000 C    0  0  0  0  0  0  0  0  0  0  0  0
    0.4836   -1.2927    0.0000 C    0  0  0  0  0  0  0  0  0  0  0  0
    0.9508   -2.1015    0.0000 C    0  0  0  0  0  0  0  0  0  0  0  0
    1.8848   -2.1015    0.0000 C    0  0  3  0  0  0  0  0  0  0  0  0
    2.8186   -2.1015    0.0000 C    0  0  0  0  0  0  0  0  0  0  0  0
    3.2858   -1.2927    0.0000 C    0  0  0  0  0  0  0  0  0  0  0  0
    2.8186   -0.4836    0.0000 C    0  0  0  0  0  0  0  0  0  0  0  0
    9.6058   -0.4836    0.0000 Br   0  5  0  0  0  0  0  0  0  0  0  0
  1  2  1  0  0  0  0
  2  3  1  0  0  0  0
  3  4  1  0  0  0  0
  4  5  1  0  0  0  0
  5  6  1  0  0  0  0
  5 10  1  0  0  0  0
  5 14  1  0  0  0  0
  6  7  1  0  0  0  0
  7  8  1  0  0  0  0
  8  9  1  0  0  0  0
 10 11  1  0  0  0  0
 11 12  1  0  0  0  0
 12 13  1  0  0  0  0
 14 15  1  0  0  0  0
 15 16  1  0  0  0  0
 16 17  1  0  0  0  0
 17 18  1  0  0  0  0
 18 19  1  0  0  0  0
 19 24  1  0  0  0  0
 19 20  1  0  0  0  0
 20 27  1  0  0  0  0
 20 21  1  0  0  0  0
 21 22  1  0  0  0  0
 22 23  1  0  0  0  0
 23 24  1  0  0  0  0
 24 25  1  0  0  0  0
 25 26  1  0  0  0  0
 26 27  1  0  0  0  0
M  END
> <NMREDATA_VERSION>
1.1

> <NMREDATA_LEVEL>
0

> <NMREDATA_SOLVENT>
CDCl3

> <NMREDATA_FORMULA>
C25H51BBrP

> <NMREDATA_SMILES>
CCCCP(CCCC)(CCCC)CCCCCB1C2CCCC1CCC2.Br

> <NMREDATA_ASSIGNMENT>
P5, 32.75, 5

> <NMREDATA_1D_31P>
Larmor=162
32.75, L=P5

$$$$
