
 OpenBabel06112616482D

 33 37  0  0  0  0  0  0  0  0999 V2000
    1.6021    0.0000    0.0000 C   0  0  0  0  0  0  0  0  0  0  0  0
    1.6021    0.9250    0.0000 F   0  0  0  0  0  0  0  0  0  0  0  0
    2.0646   -0.8011    0.0000 F   0  0  0  0  0  0  0  0  0  0  0  0
    2.5271    0.0000    0.0000 F   0  0  0  0  0  0  0  0  0  0  0  0
    0.8011   -0.4625    0.0000 C   0  0  0  0  0  0  0  0  0  0  0  0
    0.8011   -1.3875    0.0000 C   0  0  0  0  0  0  0  0  0  0  0  0
    0.0000   -1.8500    0.0000 C   0  0  0  0  0  0  0  0  0  0  0  0
   -0.8011   -1.3875    0.0000 C   0  0  0  0  0  0  0  0  0  0  0  0
   -4.0054   -3.2375    0.0000 C   0  0  0  0  0  0  0  0  0  0  0  0
   -4.0054   -4.1625    0.0000 C   0  0  0  0  0  0  0  0  0  0  0  0
   -4.8064   -4.6250    0.0000 C   0  0  0  0  0  0  0  0  0  0  0  0
   -5.6075   -4.1625    0.0000 C   0  0  0  0  0  0  0  0  0  0  0  0
   -5.6075   -3.2375    0.0000 C   0  0  0  0  0  0  0  0  0  0  0  0
   -6.4086   -2.7750    0.0000 C   0  0  0  0  0  0  0  0  0  0  0  0
   -6.4086   -1.8500    0.0000 C   0  0  0  0  0  0  0  0  0  0  0  0
   -5.6075   -1.3875    0.0000 C   0  0  0  0  0  0  0  0  0  0  0  0
   -4.8064   -1.8500    0.0000 C   0  0  0  0  0  0  0  0  0  0  0  0
   -4.0054   -1.3875    0.0000 P   0  0  0  0  0  0  0  0  0  0  0  0
   -3.2043   -1.8500    0.0000 C   0  0  0  0  0  0  0  0  0  0  0  0
   -2.4032   -1.3875    0.0000 C   0  0  0  0  0  0  0  0  0  0  0  0
   -1.6021   -1.8500    0.0000 C   0  0  0  0  0  0  0  0  0  0  0  0
   -1.6021   -2.7750    0.0000 C   0  0  0  0  0  0  0  0  0  0  0  0
   -2.4032   -3.2375    0.0000 C   0  0  0  0  0  0  0  0  0  0  0  0
   -3.2043   -2.7750    0.0000 C   0  0  0  0  0  0  0  0  0  0  0  0
   -4.0054   -0.4625    0.0000 C   0  0  0  0  0  0  0  0  0  0  0  0
   -4.8064    0.0000    0.0000 C   0  0  0  0  0  0  0  0  0  0  0  0
   -4.8064    0.9250    0.0000 C   0  0  0  0  0  0  0  0  0  0  0  0
   -4.0054    1.3875    0.0000 C   0  0  0  0  0  0  0  0  0  0  0  0
   -3.2043    0.9250    0.0000 C   0  0  0  0  0  0  0  0  0  0  0  0
   -3.2043    0.0000    0.0000 C   0  0  0  0  0  0  0  0  0  0  0  0
   -4.8064   -2.7750    0.0000 C   0  0  0  0  0  0  0  0  0  0  0  0
   -0.8011   -0.4625    0.0000 C   0  0  0  0  0  0  0  0  0  0  0  0
    0.0000    0.0000    0.0000 C   0  0  0  0  0  0  0  0  0  0  0  0
  1  2  1  0  0  0  0
  1  3  1  0  0  0  0
  1  4  1  0  0  0  0
  1  5  1  0  0  0  0
  5 33  2  0  0  0  0
  5  6  1  0  0  0  0
  6  7  2  0  0  0  0
  7  8  1  0  0  0  0
  8  9  1  0  0  0  0
  8 32  2  0  0  0  0
  9 31  2  0  0  0  0
  9 10  1  0  0  0  0
 10 11  2  0  0  0  0
 11 12  1  0  0  0  0
 12 13  2  0  0  0  0
 13 31  1  0  0  0  0
 13 14  1  0  0  0  0
 14 15  2  0  0  0  0
 15 16  1  0  0  0  0
 16 17  2  0  0  0  0
 17 18  1  0  0  0  0
 17 31  1  0  0  0  0
 18 19  1  0  0  0  0
 18 25  1  0  0  0  0
 19 24  1  0  0  0  0
 19 20  1  0  0  0  0
 20 21  1  0  0  0  0
 21 22  1  0  0  0  0
 22 23  1  0  0  0  0
 23 24  1  0  0  0  0
 25 30  1  0  0  0  0
 25 26  1  0  0  0  0
 26 27  1  0  0  0  0
 27 28  1  0  0  0  0
 28 29  1  0  0  0  0
 29 30  1  0  0  0  0
 32 33  1  0  0  0  0
M  END
> <NMREDATA_VERSION>
1.1

> <NMREDATA_LEVEL>
0

> <NMREDATA_SOLVENT>
CDCl3

> <NMREDATA_FORMULA>
C29H32F3P

> <NMREDATA_SMILES>
FC(c1ccc(cc1)c1cccc2c1c(ccc2)P(C1CCCCC1)C1CCCCC1)(F)F

> <NMREDATA_ASSIGNMENT>
P18, -10.00, 18

> <NMREDATA_1D_31P>
Larmor=162
-10.00, L=P18

$$$$
