
 OpenBabel06112616472D

 37 39  0  0  1  0  0  0  0  0999 V2000
    0.9512   -3.8049    0.0000 C   0  0  0  0  0  0  0  0  0  0  0  0
    1.7750   -4.2805    0.0000 C   0  0  0  0  0  0  0  0  0  0  0  0
    2.5988   -3.8049    0.0000 C   0  0  0  0  0  0  0  0  0  0  0  0
    2.5988   -2.8537    0.0000 C   0  0  3  0  0  0  0  0  0  0  0  0
    0.9512   -1.9024    0.0000 C   0  0  0  0  0  0  0  0  0  0  0  0
    0.9512    0.0000    0.0000 P   0  0  0  0  0  0  0  0  0  0  0  0
    1.9024    0.0000    0.0000 C   0  0  0  0  0  0  0  0  0  0  0  0
    2.3780    0.8238    0.0000 C   0  0  0  0  0  0  0  0  0  0  0  0
    3.3293    0.8238    0.0000 C   0  0  0  0  0  0  0  0  0  0  0  0
    3.8049    0.0000    0.0000 C   0  0  0  0  0  0  0  0  0  0  0  0
    3.3293   -0.8238    0.0000 C   0  0  0  0  0  0  0  0  0  0  0  0
    2.3780   -0.8238    0.0000 C   0  0  0  0  0  0  0  0  0  0  0  0
    0.9512    0.9512    0.0000 C   0  0  0  0  0  0  0  0  0  0  0  0
    0.1274    1.4268    0.0000 C   0  0  0  0  0  0  0  0  0  0  0  0
    0.1274    2.3780    0.0000 C   0  0  0  0  0  0  0  0  0  0  0  0
    0.9512    2.8537    0.0000 C   0  0  0  0  0  0  0  0  0  0  0  0
    1.7750    2.3780    0.0000 C   0  0  0  0  0  0  0  0  0  0  0  0
    1.7750    1.4268    0.0000 C   0  0  0  0  0  0  0  0  0  0  0  0
    0.0000    0.0000    0.0000 C   0  0  0  0  0  0  0  0  0  0  0  0
   -0.4756   -0.8238    0.0000 C   0  0  0  0  0  0  0  0  0  0  0  0
   -1.4268   -0.8238    0.0000 C   0  0  0  0  0  0  0  0  0  0  0  0
   -1.9024    0.0000    0.0000 C   0  0  0  0  0  0  0  0  0  0  0  0
   -1.4268    0.8238    0.0000 C   0  0  0  0  0  0  0  0  0  0  0  0
   -0.4756    0.8238    0.0000 C   0  0  0  0  0  0  0  0  0  0  0  0
    0.1274   -2.3780    0.0000 C   0  0  0  0  0  0  0  0  0  0  0  0
   -0.6963   -1.9024    0.0000 O   0  0  0  0  0  0  0  0  0  0  0  0
    0.1274   -3.3293    0.0000 O   0  0  0  0  0  0  0  0  0  0  0  0
   -0.6963   -3.8049    0.0000 C   0  0  0  0  0  0  0  0  0  0  0  0
   -1.5201   -3.3293    0.0000 C   0  0  0  0  0  0  0  0  0  0  0  0
    3.4226   -2.3780    0.0000 N   0  0  0  0  0  0  0  0  0  0  0  0
    4.2463   -2.8537    0.0000 C   0  0  0  0  0  0  0  0  0  0  0  0
    4.2463   -3.8049    0.0000 O   0  0  0  0  0  0  0  0  0  0  0  0
    5.0701   -2.3780    0.0000 O   0  0  0  0  0  0  0  0  0  0  0  0
    5.8939   -2.8537    0.0000 C   0  0  0  0  0  0  0  0  0  0  0  0
    6.8451   -2.8537    0.0000 C   0  0  0  0  0  0  0  0  0  0  0  0
    6.3695   -2.0299    0.0000 C   0  0  0  0  0  0  0  0  0  0  0  0
    5.8939   -3.8049    0.0000 C   0  0  0  0  0  0  0  0  0  0  0  0
  1  2  1  0  0  0  0
  2  3  1  0  0  0  0
  3  4  1  0  0  0  0
  4  5  1  0  0  0  0
  4 30  1  0  0  0  0
  5  6  2  0  0  0  0
  5 25  1  0  0  0  0
  6  7  1  0  0  0  0
  6 13  1  0  0  0  0
  6 19  1  0  0  0  0
  7 12  2  0  0  0  0
  7  8  1  0  0  0  0
  8  9  2  0  0  0  0
  9 10  1  0  0  0  0
 10 11  2  0  0  0  0
 11 12  1  0  0  0  0
 13 18  2  0  0  0  0
 13 14  1  0  0  0  0
 14 15  2  0  0  0  0
 15 16  1  0  0  0  0
 16 17  2  0  0  0  0
 17 18  1  0  0  0  0
 19 24  2  0  0  0  0
 19 20  1  0  0  0  0
 20 21  2  0  0  0  0
 21 22  1  0  0  0  0
 22 23  2  0  0  0  0
 23 24  1  0  0  0  0
 25 26  2  0  0  0  0
 25 27  1  0  0  0  0
 27 28  1  0  0  0  0
 28 29  1  0  0  0  0
 30 31  1  0  0  0  0
 31 32  2  0  0  0  0
 31 33  1  0  0  0  0
 33 34  1  0  0  0  0
 34 35  1  0  0  0  0
 34 36  1  0  0  0  0
 34 37  1  0  0  0  0
M  END
> <NMREDATA_VERSION>
1.1

> <NMREDATA_LEVEL>
0

> <NMREDATA_SOLVENT>
CDCl3

> <NMREDATA_FORMULA>
C31H38NO4P

> <NMREDATA_SMILES>
CCCC(C(=P(c1ccccc1)(c1ccccc1)c1ccccc1)C(=O)OCC)NC(=O)OC(C)(C)C

> <NMREDATA_ASSIGNMENT>
P6, 22.20, 6

> <NMREDATA_1D_31P>
Larmor=162
22.20, L=P6

$$$$
