
 OpenBabel06112616432D

 25 29  0  0  0  0  0  0  0  0999 V2000
   -2.5269    0.4509    0.0000 C   0  0  0  0  0  0  0  0  0  0  0  0
   -1.6824   -0.0184    0.0000 P   0  0  2  0  0  0  0  0  0  0  0  0
   -1.6930    0.9499    0.0000 O   0  0  0  0  0  0  0  0  0  0  0  0
   -1.6719   -0.9845    0.0000 C   0  0  0  0  0  0  0  0  0  0  0  0
   -2.5028   -1.4756    0.0000 C   0  0  0  0  0  0  0  0  0  0  0  0
   -2.4930   -2.4407    0.0000 C   0  0  0  0  0  0  0  0  0  0  0  0
   -3.3284   -2.9344    0.0000 F   0  0  0  0  0  0  0  0  0  0  0  0
   -1.6523   -2.9148    0.0000 C   0  0  0  0  0  0  0  0  0  0  0  0
   -0.8213   -2.4237    0.0000 C   0  0  0  0  0  0  0  0  0  0  0  0
   -0.8311   -1.4586    0.0000 C   0  0  0  0  0  0  0  0  0  0  0  0
    0.0106   -0.9661    0.0000 C   0  0  0  0  0  0  0  0  0  0  0  0
    0.8571   -1.4401    0.0000 C   0  0  0  0  0  0  0  0  0  0  0  0
    1.6869   -0.9478    0.0000 C   0  0  0  0  0  0  0  0  0  0  0  0
    1.6763    0.0183    0.0000 C   0  0  0  0  0  0  0  0  0  0  0  0
    0.8358    0.5036    0.0000 C   0  0  0  0  0  0  0  0  0  0  0  0
    0.8252    1.4755    0.0000 C   0  0  0  0  0  0  0  0  0  0  0  0
   -0.0328    1.9436    0.0000 C   0  0  0  0  0  0  0  0  0  0  0  0
   -0.8630    1.4570    0.0000 C   0  0  0  0  0  0  0  0  0  0  0  0
   -0.8524    0.4851    0.0000 C   0  0  0  0  0  0  0  0  0  0  0  0
    0.0000    0.0000    0.0000 C   0  0  0  0  0  0  0  0  0  0  0  0
   -3.3557   -0.0457    0.0000 C   0  0  0  0  0  0  0  0  0  0  0  0
   -4.2001    0.4236    0.0000 C   0  0  0  0  0  0  0  0  0  0  0  0
   -4.2159    1.3896    0.0000 C   0  0  0  0  0  0  0  0  0  0  0  0
   -3.3872    1.8863    0.0000 C   0  0  0  0  0  0  0  0  0  0  0  0
   -2.5427    1.4170    0.0000 C   0  0  0  0  0  0  0  0  0  0  0  0
  1 25  2  0  0  0  0
  1  2  1  0  0  0  0
  1 21  1  0  0  0  0
  2 19  1  0  0  0  0
  2  3  2  6  0  0  0
  2  4  1  0  0  0  0
  4 10  2  0  0  0  0
  4  5  1  0  0  0  0
  5  6  2  0  0  0  0
  6  7  1  0  0  0  0
  6  8  1  0  0  0  0
  8  9  2  0  0  0  0
  9 10  1  0  0  0  0
 10 11  1  0  0  0  0
 11 20  2  0  0  0  0
 11 12  1  0  0  0  0
 12 13  2  0  0  0  0
 13 14  1  0  0  0  0
 14 15  2  0  0  0  0
 15 20  1  0  0  0  0
 15 16  1  0  0  0  0
 16 17  2  0  0  0  0
 17 18  1  0  0  0  0
 18 19  2  0  0  0  0
 19 20  1  0  0  0  0
 21 22  2  0  0  0  0
 22 23  1  0  0  0  0
 23 24  2  0  0  0  0
 24 25  1  0  0  0  0
M  END
> <NMREDATA_VERSION>
1.1

> <NMREDATA_LEVEL>
0

> <NMREDATA_SOLVENT>
CDCl3

> <NMREDATA_FORMULA>
C22H14FOP

> <NMREDATA_SMILES>
Fc1ccc2-c3cccc4c3c([P@@](=O)(c2c1)c1ccccc1)ccc4

> <NMREDATA_ASSIGNMENT>
P2, 8.70, 2

> <NMREDATA_1D_31P>
Larmor=121
8.70, L=P2

$$$$
