
 OpenBabel06112616442D

 37 43  0  0  0  0  0  0  0  0999 V2000
    0.8463   -1.4659    0.0000 P   0  0  0  0  0  0  0  0  0  0  0  0
    0.8463   -2.4432    0.0000 C   0  0  0  0  0  0  0  0  0  0  0  0
    1.6927   -2.9318    0.0000 C   0  0  0  0  0  0  0  0  0  0  0  0
    1.6927   -3.9091    0.0000 C   0  0  0  0  0  0  0  0  0  0  0  0
    0.8463   -4.3977    0.0000 C   0  0  0  0  0  0  0  0  0  0  0  0
    0.8463   -5.3750    0.0000 C   0  0  0  0  0  0  0  0  0  0  0  0
    0.0000   -5.8636    0.0000 C   0  0  0  0  0  0  0  0  0  0  0  0
   -0.8463   -5.3750    0.0000 C   0  0  0  0  0  0  0  0  0  0  0  0
   -0.8463   -4.3977    0.0000 C   0  0  0  0  0  0  0  0  0  0  0  0
    0.0000   -3.9091    0.0000 C   0  0  0  0  0  0  0  0  0  0  0  0
    0.0000   -2.9318    0.0000 C   0  0  0  0  0  0  0  0  0  0  0  0
   -1.6927   -1.9545    0.0000 C   0  0  0  0  0  0  0  0  0  0  0  0
   -1.6927   -0.9773    0.0000 N   0  0  0  0  0  0  0  0  0  0  0  0
   -2.5390   -0.4886    0.0000 C   0  0  0  0  0  0  0  0  0  0  0  0
   -3.3854   -0.9773    0.0000 C   0  0  0  0  0  0  0  0  0  0  0  0
   -3.3854   -1.9545    0.0000 C   0  0  0  0  0  0  0  0  0  0  0  0
   -4.2317   -2.4432    0.0000 C   0  0  0  0  0  0  0  0  0  0  0  0
   -4.2317   -3.4205    0.0000 C   0  0  0  0  0  0  0  0  0  0  0  0
   -3.3854   -3.9091    0.0000 C   0  0  0  0  0  0  0  0  0  0  0  0
   -3.3854   -4.8864    0.0000 C   0  0  0  0  0  0  0  0  0  0  0  0
   -2.5390   -5.3750    0.0000 C   0  0  0  0  0  0  0  0  0  0  0  0
   -1.6927   -4.8864    0.0000 C   0  0  0  0  0  0  0  0  0  0  0  0
   -1.6927   -3.9091    0.0000 C   0  0  0  0  0  0  0  0  0  0  0  0
   -2.5390   -3.4205    0.0000 C   0  0  0  0  0  0  0  0  0  0  0  0
   -2.5390   -2.4432    0.0000 C   0  0  0  0  0  0  0  0  0  0  0  0
    1.6927   -0.9773    0.0000 C   0  0  0  0  0  0  0  0  0  0  0  0
    1.6927    0.0000    0.0000 C   0  0  0  0  0  0  0  0  0  0  0  0
    2.5390    0.4886    0.0000 C   0  0  0  0  0  0  0  0  0  0  0  0
    3.3854    0.0000    0.0000 C   0  0  0  0  0  0  0  0  0  0  0  0
    3.3854   -0.9773    0.0000 C   0  0  0  0  0  0  0  0  0  0  0  0
    2.5390   -1.4659    0.0000 C   0  0  0  0  0  0  0  0  0  0  0  0
    0.0000   -0.9773    0.0000 C   0  0  0  0  0  0  0  0  0  0  0  0
   -0.8463   -1.4659    0.0000 C   0  0  0  0  0  0  0  0  0  0  0  0
   -1.6927   -0.9773    0.0000 C   0  0  0  0  0  0  0  0  0  0  0  0
   -1.6927    0.0000    0.0000 C   0  0  0  0  0  0  0  0  0  0  0  0
   -0.8463    0.4886    0.0000 C   0  0  0  0  0  0  0  0  0  0  0  0
    0.0000    0.0000    0.0000 C   0  0  0  0  0  0  0  0  0  0  0  0
  1  2  1  0  0  0  0
  1 26  1  0  0  0  0
  1 32  1  0  0  0  0
  2 11  2  0  0  0  0
  2  3  1  0  0  0  0
  3  4  2  0  0  0  0
  4  5  1  0  0  0  0
  5 10  2  0  0  0  0
  5  6  1  0  0  0  0
  6  7  2  0  0  0  0
  7  8  1  0  0  0  0
  8  9  2  0  0  0  0
  9 10  1  0  0  0  0
 10 11  1  0  0  0  0
 11 12  1  0  0  0  0
 12 25  2  0  0  0  0
 12 13  1  0  0  0  0
 13 14  2  0  0  0  0
 14 15  1  0  0  0  0
 15 16  2  0  0  0  0
 16 25  1  0  0  0  0
 16 17  1  0  0  0  0
 17 18  2  0  0  0  0
 18 19  1  0  0  0  0
 19 24  2  0  0  0  0
 19 20  1  0  0  0  0
 20 21  2  0  0  0  0
 21 22  1  0  0  0  0
 22 23  2  0  0  0  0
 23 24  1  0  0  0  0
 24 25  1  0  0  0  0
 26 31  2  0  0  0  0
 26 27  1  0  0  0  0
 27 28  2  0  0  0  0
 28 29  1  0  0  0  0
 29 30  2  0  0  0  0
 30 31  1  0  0  0  0
 32 37  2  0  0  0  0
 32 33  1  0  0  0  0
 33 34  2  0  0  0  0
 34 35  1  0  0  0  0
 35 36  2  0  0  0  0
 36 37  1  0  0  0  0
M  END
> <NMREDATA_VERSION>
1.1

> <NMREDATA_LEVEL>
0

> <NMREDATA_SOLVENT>
CDCl3

> <NMREDATA_FORMULA>
C35H24NP

> <NMREDATA_SMILES>
c1ccc(cc1)P(c1ccc2c(c1c1nccc3c1c1ccccc1cc3)cccc2)c1ccccc1

> <NMREDATA_ASSIGNMENT>
P1, -13.63, 1

> <NMREDATA_1D_31P>
Larmor=162
-13.63, L=P1

$$$$
