
 OpenBabel06112616452D

 30 33  0  0  1  0  0  0  0  0999 V2000
    2.2964    2.2964    0.0000 N   0  0  0  0  0  0  0  0  0  0  0  0
    1.4559    1.8111    0.0000 C   0  0  0  0  0  0  0  0  0  0  0  0
    0.6153    2.2964    0.0000 H   0  0  0  0  0  0  0  0  0  0  0  0
    1.4559   -0.1300    0.0000 C   0  0  0  0  0  0  0  0  0  0  0  0
    1.9412   -0.9706    0.0000 N   0  0  0  0  0  0  0  0  0  0  0  0
    0.9706   -0.9706    0.0000 C   0  0  3  0  0  0  0  0  0  0  0  0
    0.0000   -0.9706    0.0000 P   0  0  0  0  0  0  0  0  0  0  0  0
    0.0000   -1.9412    0.0000 O   0  0  0  0  0  0  0  0  0  0  0  0
   -0.9706   -0.9706    0.0000 C   0  0  0  0  0  0  0  0  0  0  0  0
   -1.4559   -0.1300    0.0000 C   0  0  0  0  0  0  0  0  0  0  0  0
   -2.4265   -0.1300    0.0000 C   0  0  0  0  0  0  0  0  0  0  0  0
   -2.9118   -0.9706    0.0000 C   0  0  0  0  0  0  0  0  0  0  0  0
   -2.4265   -1.8111    0.0000 C   0  0  0  0  0  0  0  0  0  0  0  0
   -1.4559   -1.8111    0.0000 C   0  0  0  0  0  0  0  0  0  0  0  0
    0.0000    0.0000    0.0000 C   0  0  0  0  0  0  0  0  0  0  0  0
    0.8406    0.4853    0.0000 C   0  0  0  0  0  0  0  0  0  0  0  0
    0.8406    1.4559    0.0000 C   0  0  0  0  0  0  0  0  0  0  0  0
    0.0000    1.9412    0.0000 C   0  0  0  0  0  0  0  0  0  0  0  0
   -0.8406    1.4559    0.0000 C   0  0  0  0  0  0  0  0  0  0  0  0
   -0.8406    0.4853    0.0000 C   0  0  0  0  0  0  0  0  0  0  0  0
    0.4853   -1.8111    0.0000 C   0  0  0  0  0  0  0  0  0  0  0  0
    0.9706   -2.6517    0.0000 O   0  0  0  0  0  0  0  0  0  0  0  0
    1.9412   -2.6517    0.0000 C   0  0  0  0  0  0  0  0  0  0  0  0
    2.4265   -1.8111    0.0000 C   0  0  0  0  0  0  0  0  0  0  0  0
    3.3971   -1.8111    0.0000 C   0  0  0  0  0  0  0  0  0  0  0  0
    3.8824   -2.6517    0.0000 C   0  0  0  0  0  0  0  0  0  0  0  0
    3.3971   -3.4923    0.0000 C   0  0  0  0  0  0  0  0  0  0  0  0
    2.4265   -3.4923    0.0000 C   0  0  0  0  0  0  0  0  0  0  0  0
    3.1370    1.8111    0.0000 N   0  3  0  0  0  0  0  0  0  0  0  0
    3.9775    1.3258    0.0000 N   0  5  0  0  0  0  0  0  0  0  0  0
  1  2  1  0  0  0  0
  1 29  2  0  0  0  0
  2  3  1  0  0  0  0
  2  4  1  0  0  0  0
  4  6  1  0  0  0  0
  4  5  2  0  0  0  0
  5  6  1  0  0  0  0
  6  7  1  0  0  0  0
  6 21  1  0  0  0  0
  7  8  2  0  0  0  0
  7  9  1  0  0  0  0
  7 15  1  0  0  0  0
  9 14  1  0  0  0  0
  9 10  2  0  0  0  0
 10 11  1  0  0  0  0
 11 12  2  0  0  0  0
 12 13  1  0  0  0  0
 13 14  2  0  0  0  0
 15 20  1  0  0  0  0
 15 16  2  0  0  0  0
 16 17  1  0  0  0  0
 17 18  2  0  0  0  0
 18 19  1  0  0  0  0
 19 20  2  0  0  0  0
 21 22  1  0  0  0  0
 22 23  1  0  0  0  0
 23 28  1  0  0  0  0
 23 24  2  0  0  0  0
 24 25  1  0  0  0  0
 25 26  2  0  0  0  0
 26 27  1  0  0  0  0
 27 28  2  0  0  0  0
 29 30  2  0  0  0  0
M  END
> <NMREDATA_VERSION>
1.1

> <NMREDATA_LEVEL>
0

> <NMREDATA_SOLVENT>
CDCl3

> <NMREDATA_FORMULA>
C22H19N4O2P

> <NMREDATA_SMILES>
[N-]=[N+]=NCC1=NC1(COc1ccccc1)P(=O)(c1ccccc1)c1ccccc1

> <NMREDATA_ASSIGNMENT>
P7, 32.10, 7

> <NMREDATA_1D_31P>
Larmor=202
32.10, L=P7

$$$$
