
 OpenBabel06112616452D

 36 39  0  0  0  0  0  0  0  0999 V2000
    0.1306   -2.4375    0.0000 C   0  0  0  0  0  0  0  0  0  0  0  0
    0.1306   -1.4625    0.0000 C   0  0  0  0  0  0  0  0  0  0  0  0
    0.9750   -0.9750    0.0000 C   0  0  0  0  0  0  0  0  0  0  0  0
    0.9750    0.0000    0.0000 P   0  0  2  0  0  0  0  0  0  0  0  0
    2.9250    0.0000    0.0000 C   0  0  0  0  0  0  0  0  0  0  0  0
    3.4125    0.8444    0.0000 C   0  0  0  0  0  0  0  0  0  0  0  0
    2.9250    1.6887    0.0000 C   0  0  0  0  0  0  0  0  0  0  0  0
    4.3875    0.8444    0.0000 C   0  0  0  0  0  0  0  0  0  0  0  0
    4.8750    0.0000    0.0000 C   0  0  0  0  0  0  0  0  0  0  0  0
    5.8500    0.0000    0.0000 C   0  0  0  0  0  0  0  0  0  0  0  0
    4.3875   -0.8444    0.0000 C   0  0  0  0  0  0  0  0  0  0  0  0
    3.4125   -0.8444    0.0000 C   0  0  0  0  0  0  0  0  0  0  0  0
    2.9250   -1.6887    0.0000 C   0  0  0  0  0  0  0  0  0  0  0  0
    0.9750    0.9750    0.0000 C   0  0  0  0  0  0  0  0  0  0  0  0
    0.1306    1.4625    0.0000 C   0  0  0  0  0  0  0  0  0  0  0  0
    0.1306    2.4375    0.0000 C   0  0  0  0  0  0  0  0  0  0  0  0
    0.9750    2.9250    0.0000 C   0  0  0  0  0  0  0  0  0  0  0  0
    1.8194    2.4375    0.0000 C   0  0  0  0  0  0  0  0  0  0  0  0
    1.8194    1.4625    0.0000 C   0  0  0  0  0  0  0  0  0  0  0  0
    0.0000    0.0000    0.0000 O   0  0  0  0  0  0  0  0  0  0  0  0
   -0.7137   -0.9750    0.0000 C   0  0  0  0  0  0  0  0  0  0  0  0
   -0.7137    0.0000    0.0000 O   0  0  0  0  0  0  0  0  0  0  0  0
   -1.5581    0.4875    0.0000 C   0  0  0  0  0  0  0  0  0  0  0  0
   -1.5581    1.4625    0.0000 C   0  0  0  0  0  0  0  0  0  0  0  0
   -2.4025    1.9500    0.0000 C   0  0  0  0  0  0  0  0  0  0  0  0
   -2.4025    2.9250    0.0000 C   0  0  0  0  0  0  0  0  0  0  0  0
   -1.5581    3.4125    0.0000 C   0  0  0  0  0  0  0  0  0  0  0  0
   -0.7137    2.9250    0.0000 C   0  0  0  0  0  0  0  0  0  0  0  0
   -0.7137    1.9500    0.0000 C   0  0  0  0  0  0  0  0  0  0  0  0
   -2.4025    0.0000    0.0000 C   0  0  0  0  0  0  0  0  0  0  0  0
   -2.4025   -0.9750    0.0000 C   0  0  0  0  0  0  0  0  0  0  0  0
   -3.2469   -1.4625    0.0000 C   0  0  0  0  0  0  0  0  0  0  0  0
   -4.0912   -0.9750    0.0000 C   0  0  0  0  0  0  0  0  0  0  0  0
   -4.0912    0.0000    0.0000 C   0  0  0  0  0  0  0  0  0  0  0  0
   -3.2469    0.4875    0.0000 C   0  0  0  0  0  0  0  0  0  0  0  0
   -1.5581   -1.4625    0.0000 O   0  0  0  0  0  0  0  0  0  0  0  0
  1  2  2  0  0  0  0
  2  3  1  0  0  0  0
  2 21  1  0  0  0  0
  3  4  1  0  0  0  0
  4  5  1  0  0  0  0
  4 14  1  0  0  0  0
  4 20  2  6  0  0  0
  5 12  2  0  0  0  0
  5  6  1  0  0  0  0
  6  7  1  0  0  0  0
  6  8  2  0  0  0  0
  8  9  1  0  0  0  0
  9 10  1  0  0  0  0
  9 11  2  0  0  0  0
 11 12  1  0  0  0  0
 12 13  1  0  0  0  0
 14 19  2  0  0  0  0
 14 15  1  0  0  0  0
 15 16  2  0  0  0  0
 16 17  1  0  0  0  0
 17 18  2  0  0  0  0
 18 19  1  0  0  0  0
 21 22  1  0  0  0  0
 21 36  2  0  0  0  0
 22 23  1  0  0  0  0
 23 24  1  0  0  0  0
 23 30  1  0  0  0  0
 24 29  2  0  0  0  0
 24 25  1  0  0  0  0
 25 26  2  0  0  0  0
 26 27  1  0  0  0  0
 27 28  2  0  0  0  0
 28 29  1  0  0  0  0
 30 35  2  0  0  0  0
 30 31  1  0  0  0  0
 31 32  2  0  0  0  0
 32 33  1  0  0  0  0
 33 34  2  0  0  0  0
 34 35  1  0  0  0  0
M  END
> <NMREDATA_VERSION>
1.1

> <NMREDATA_LEVEL>
0

> <NMREDATA_SOLVENT>
CDCl3

> <NMREDATA_FORMULA>
C32H31O3P

> <NMREDATA_SMILES>
Cc1cc(C)c(c(c1)C)[P@](=O)(c1ccccc1)CC(=C)C(=O)OC(c1ccccc1)c1ccccc1

> <NMREDATA_ASSIGNMENT>
P4, 33.82, 4

> <NMREDATA_1D_31P>
Larmor=202
33.82, L=P4

$$$$
