
 OpenBabel06112616432D

 36 39  0  0  0  0  0  0  0  0999 V2000
   -3.5229    1.3179    0.0000 C   0  0  0  0  0  0  0  0  0  0  0  0
   -2.5956    1.6192    0.0000 C   0  0  0  0  0  0  0  0  0  0  0  0
   -2.3929    2.5729    0.0000 O   0  0  0  0  0  0  0  0  0  0  0  0
   -1.4656    2.8742    0.0000 C   0  0  0  0  0  0  0  0  0  0  0  0
   -1.2629    3.8279    0.0000 O   0  0  0  0  0  0  0  0  0  0  0  0
   -0.7411    2.2218    0.0000 C   0  0  0  0  0  0  0  0  0  0  0  0
    0.1862    2.5231    0.0000 C   0  0  0  0  0  0  0  0  0  0  0  0
    0.9750    1.9500    0.0000 C   0  0  0  0  0  0  0  0  0  0  0  0
    0.9750    0.0000    0.0000 P   0  0  0  0  0  0  0  0  0  0  0  0
    1.9500    0.0000    0.0000 O   0  0  0  0  0  0  0  0  0  0  0  0
    0.9750   -0.9750    0.0000 C   0  0  0  0  0  0  0  0  0  0  0  0
    0.1306   -1.4625    0.0000 C   0  0  0  0  0  0  0  0  0  0  0  0
    0.1306   -2.4375    0.0000 C   0  0  0  0  0  0  0  0  0  0  0  0
    0.9750   -2.9250    0.0000 C   0  0  0  0  0  0  0  0  0  0  0  0
    1.8194   -2.4375    0.0000 C   0  0  0  0  0  0  0  0  0  0  0  0
    1.8194   -1.4625    0.0000 C   0  0  0  0  0  0  0  0  0  0  0  0
    0.0000    0.0000    0.0000 C   0  0  0  0  0  0  0  0  0  0  0  0
   -0.4875    0.8444    0.0000 C   0  0  0  0  0  0  0  0  0  0  0  0
   -1.4625    0.8444    0.0000 C   0  0  0  0  0  0  0  0  0  0  0  0
   -1.9500    0.0000    0.0000 C   0  0  0  0  0  0  0  0  0  0  0  0
   -1.4625   -0.8444    0.0000 C   0  0  0  0  0  0  0  0  0  0  0  0
   -0.4875   -0.8444    0.0000 C   0  0  0  0  0  0  0  0  0  0  0  0
    1.7638    2.5231    0.0000 N   0  0  0  0  0  0  0  0  0  0  0  0
    2.6911    2.2218    0.0000 C   0  0  0  0  0  0  0  0  0  0  0  0
    3.4156    2.8742    0.0000 O   0  0  0  0  0  0  0  0  0  0  0  0
    2.8938    1.2681    0.0000 O   0  0  0  0  0  0  0  0  0  0  0  0
    3.8211    0.9668    0.0000 C   0  0  0  0  0  0  0  0  0  0  0  0
    4.4735    0.2422    0.0000 C   0  0  0  0  0  0  0  0  0  0  0  0
    3.5198    0.0395    0.0000 C   0  0  0  0  0  0  0  0  0  0  0  0
    4.5456    1.6192    0.0000 C   0  0  0  0  0  0  0  0  0  0  0  0
    1.4625    3.4504    0.0000 C   0  0  0  0  0  0  0  0  0  0  0  0
    1.9500    4.2947    0.0000 C   0  0  0  0  0  0  0  0  0  0  0  0
    1.4625    5.1391    0.0000 C   0  0  0  0  0  0  0  0  0  0  0  0
    0.4875    5.1391    0.0000 C   0  0  0  0  0  0  0  0  0  0  0  0
    0.0000    4.2947    0.0000 C   0  0  0  0  0  0  0  0  0  0  0  0
    0.4875    3.4504    0.0000 C   0  0  0  0  0  0  0  0  0  0  0  0
  1  2  1  0  0  0  0
  2  3  1  0  0  0  0
  3  4  1  0  0  0  0
  4  5  2  0  0  0  0
  4  6  1  0  0  0  0
  6  7  1  0  0  0  0
  7 36  1  0  0  0  0
  7  8  2  0  0  0  0
  8  9  1  0  0  0  0
  8 23  1  0  0  0  0
  9 10  2  0  0  0  0
  9 11  1  0  0  0  0
  9 17  1  0  0  0  0
 11 16  2  0  0  0  0
 11 12  1  0  0  0  0
 12 13  2  0  0  0  0
 13 14  1  0  0  0  0
 14 15  2  0  0  0  0
 15 16  1  0  0  0  0
 17 22  2  0  0  0  0
 17 18  1  0  0  0  0
 18 19  2  0  0  0  0
 19 20  1  0  0  0  0
 20 21  2  0  0  0  0
 21 22  1  0  0  0  0
 23 24  1  0  0  0  0
 23 31  1  0  0  0  0
 24 25  2  0  0  0  0
 24 26  1  0  0  0  0
 26 27  1  0  0  0  0
 27 28  1  0  0  0  0
 27 29  1  0  0  0  0
 27 30  1  0  0  0  0
 31 36  2  0  0  0  0
 31 32  1  0  0  0  0
 32 33  2  0  0  0  0
 33 34  1  0  0  0  0
 34 35  2  0  0  0  0
 35 36  1  0  0  0  0
M  END
> <NMREDATA_VERSION>
1.1

> <NMREDATA_LEVEL>
0

> <NMREDATA_SOLVENT>
CDCl3

> <NMREDATA_FORMULA>
C29H30NO5P

> <NMREDATA_SMILES>
CCOC(=O)Cc1c2ccccc2n(c1P(=O)(c1ccccc1)c1ccccc1)C(=O)OC(C)(C)C

> <NMREDATA_ASSIGNMENT>
P9, 28.30, 9

> <NMREDATA_1D_31P>
Larmor=162
28.30, L=P9

$$$$
