
 OpenBabel06112616482D

 35 38  0  0  0  0  0  0  0  0999 V2000
    0.1340   -4.5000    0.0000 C   0  0  0  0  0  0  0  0  0  0  0  0
    1.0000   -4.0000    0.0000 S   0  0  0  0  0  0  0  0  0  0  0  0
    1.0000   -3.0000    0.0000 C   0  0  0  0  0  0  0  0  0  0  0  0
    0.1340   -2.5000    0.0000 C   0  0  0  0  0  0  0  0  0  0  0  0
    0.1340   -1.5000    0.0000 C   0  0  0  0  0  0  0  0  0  0  0  0
    1.0000   -1.0000    0.0000 C   0  0  0  0  0  0  0  0  0  0  0  0
    1.0000    0.0000    0.0000 P   0  0  0  0  0  0  0  0  0  0  0  0
    2.0000    0.0000    0.0000 C   0  0  0  0  0  0  0  0  0  0  0  0
    2.5000   -0.8660    0.0000 C   0  0  0  0  0  0  0  0  0  0  0  0
    3.5000   -0.8660    0.0000 C   0  0  0  0  0  0  0  0  0  0  0  0
    4.3660   -0.3660    0.0000 C   0  0  0  0  0  0  0  0  0  0  0  0
    3.5000    0.1340    0.0000 C   0  0  0  0  0  0  0  0  0  0  0  0
    4.0000   -1.7321    0.0000 C   0  0  0  0  0  0  0  0  0  0  0  0
    2.5000    0.8660    0.0000 C   0  0  0  0  0  0  0  0  0  0  0  0
    2.0000    1.7321    0.0000 C   0  0  0  0  0  0  0  0  0  0  0  0
    1.0000    1.7321    0.0000 O   0  0  0  0  0  0  0  0  0  0  0  0
    2.5000    2.5981    0.0000 C   0  0  0  0  0  0  0  0  0  0  0  0
    3.5000    2.5981    0.0000 C   0  0  0  0  0  0  0  0  0  0  0  0
    4.0000    1.7321    0.0000 C   0  0  0  0  0  0  0  0  0  0  0  0
    5.0000    1.7321    0.0000 C   0  0  0  0  0  0  0  0  0  0  0  0
    5.5000    0.8660    0.0000 C   0  0  0  0  0  0  0  0  0  0  0  0
    5.0000    0.0000    0.0000 C   0  0  0  0  0  0  0  0  0  0  0  0
    4.0000    0.0000    0.0000 C   0  0  0  0  0  0  0  0  0  0  0  0
    3.5000    0.8660    0.0000 C   0  0  0  0  0  0  0  0  0  0  0  0
    1.0000    1.0000    0.0000 O   0  0  0  0  0  0  0  0  0  0  0  0
    0.0000    0.0000    0.0000 C   0  0  0  0  0  0  0  0  0  0  0  0
   -0.5000   -0.8660    0.0000 C   0  0  0  0  0  0  0  0  0  0  0  0
   -1.5000   -0.8660    0.0000 C   0  0  0  0  0  0  0  0  0  0  0  0
   -2.0000    0.0000    0.0000 C   0  0  0  0  0  0  0  0  0  0  0  0
   -3.0000    0.0000    0.0000 S   0  0  0  0  0  0  0  0  0  0  0  0
   -3.5000    0.8660    0.0000 C   0  0  0  0  0  0  0  0  0  0  0  0
   -1.5000    0.8660    0.0000 C   0  0  0  0  0  0  0  0  0  0  0  0
   -0.5000    0.8660    0.0000 C   0  0  0  0  0  0  0  0  0  0  0  0
    1.8660   -1.5000    0.0000 C   0  0  0  0  0  0  0  0  0  0  0  0
    1.8660   -2.5000    0.0000 C   0  0  0  0  0  0  0  0  0  0  0  0
  1  2  1  0  0  0  0
  2  3  1  0  0  0  0
  3 35  2  0  0  0  0
  3  4  1  0  0  0  0
  4  5  2  0  0  0  0
  5  6  1  0  0  0  0
  6  7  1  0  0  0  0
  6 34  2  0  0  0  0
  7  8  1  0  0  0  0
  7 25  2  0  0  0  0
  7 26  1  0  0  0  0
  8  9  2  3  0  0  0
  8 14  1  0  0  0  0
  9 10  1  0  0  0  0
 10 11  1  0  0  0  0
 10 12  1  0  0  0  0
 10 13  1  0  0  0  0
 14 24  2  0  0  0  0
 14 15  1  0  0  0  0
 15 16  1  0  0  0  0
 15 17  2  0  0  0  0
 17 18  1  0  0  0  0
 18 19  2  0  0  0  0
 19 24  1  0  0  0  0
 19 20  1  0  0  0  0
 20 21  2  0  0  0  0
 21 22  1  0  0  0  0
 22 23  2  0  0  0  0
 23 24  1  0  0  0  0
 26 33  2  0  0  0  0
 26 27  1  0  0  0  0
 27 28  2  0  0  0  0
 28 29  1  0  0  0  0
 29 30  1  0  0  0  0
 29 32  2  0  0  0  0
 30 31  1  0  0  0  0
 32 33  1  0  0  0  0
 34 35  1  0  0  0  0
M  END
> <NMREDATA_VERSION>
1.1

> <NMREDATA_LEVEL>
0

> <NMREDATA_SOLVENT>
CDCl3

> <NMREDATA_FORMULA>
C30H31O2PS2

> <NMREDATA_SMILES>
CSc1ccc(cc1)P(=O)(C(=CC(C)(C)C)c1c(O)ccc2c1cccc2)c1ccc(cc1)SC

> <NMREDATA_ASSIGNMENT>
P7, 37.35, 7

> <NMREDATA_1D_31P>
Larmor=202
37.35, L=P7

$$$$
