
 OpenBabel06112616482D

 18 20  0  0  0  0  0  0  0  0999 V2000
   -1.3660   -1.3660    0.0000 C   0  0  0  0  0  0  0  0  0  0  0  0
   -0.8660   -0.5000    0.0000 P   0  0  3  0  0  0  0  0  0  0  0  0
   -0.3660   -1.3660    0.0000 O   0  0  0  0  0  0  0  0  0  0  0  0
   -1.7321    0.0000    0.0000 C   0  0  0  0  0  0  0  0  0  0  0  0
   -1.7321    1.0000    0.0000 C   0  0  0  0  0  0  0  0  0  0  0  0
   -2.5981    1.5000    0.0000 C   0  0  0  0  0  0  0  0  0  0  0  0
   -3.5116    1.0933    0.0000 C   0  0  0  0  0  0  0  0  0  0  0  0
   -4.1808    1.8364    0.0000 C   0  0  0  0  0  0  0  0  0  0  0  0
   -3.6808    2.7024    0.0000 S   0  0  0  0  0  0  0  0  0  0  0  0
   -2.7026    2.4945    0.0000 C   0  0  0  0  0  0  0  0  0  0  0  0
   -0.8660    1.5000    0.0000 O   0  0  0  0  0  0  0  0  0  0  0  0
    0.0000    1.0000    0.0000 C   0  0  0  0  0  0  0  0  0  0  0  0
    0.8660    1.5000    0.0000 C   0  0  0  0  0  0  0  0  0  0  0  0
    0.9706    2.4945    0.0000 C   0  0  0  0  0  0  0  0  0  0  0  0
    1.9487    2.7024    0.0000 C   0  0  0  0  0  0  0  0  0  0  0  0
    2.4487    1.8364    0.0000 S   0  0  0  0  0  0  0  0  0  0  0  0
    1.7796    1.0933    0.0000 C   0  0  0  0  0  0  0  0  0  0  0  0
    0.0000    0.0000    0.0000 C   0  0  0  0  0  0  0  0  0  0  0  0
  1  2  1  0  0  0  0
  2 18  1  0  0  0  0
  2  3  2  0  0  0  0
  2  4  1  0  0  0  0
  4  5  2  0  0  0  0
  5  6  1  0  0  0  0
  5 11  1  0  0  0  0
  6 10  2  0  0  0  0
  6  7  1  0  0  0  0
  7  8  2  0  0  0  0
  8  9  1  0  0  0  0
  9 10  1  0  0  0  0
 11 12  1  0  0  0  0
 12 13  1  0  0  0  0
 12 18  2  0  0  0  0
 13 17  2  0  0  0  0
 13 14  1  0  0  0  0
 14 15  2  0  0  0  0
 15 16  1  0  0  0  0
 16 17  1  0  0  0  0
M  END
> <NMREDATA_VERSION>
1.1

> <NMREDATA_LEVEL>
0

> <NMREDATA_SOLVENT>
CDCl3

> <NMREDATA_FORMULA>
C13H11O2PS2

> <NMREDATA_SMILES>
CP1(=O)C=C(OC(=C1)c1cscc1)c1cscc1

> <NMREDATA_ASSIGNMENT>
P2, 1.70, 2

> <NMREDATA_1D_31P>
Larmor=162
1.70, L=P2

$$$$
