
 OpenBabel06112616432D

 35 37  0  0  0  0  0  0  0  0999 V2000
    0.5000   -5.2321    0.0000 C   0  0  0  0  0  0  0  0  0  0  0  0
    1.5000   -5.2321    0.0000 O   0  0  0  0  0  0  0  0  0  0  0  0
    2.0000   -4.3660    0.0000 C   0  0  0  0  0  0  0  0  0  0  0  0
    1.5000   -3.5000    0.0000 N   0  0  0  0  0  0  0  0  0  0  0  0
    2.0000   -2.6340    0.0000 C   0  0  0  0  0  0  0  0  0  0  0  0
    3.0000   -2.6340    0.0000 C   0  0  0  0  0  0  0  0  0  0  0  0
    3.5000   -3.5000    0.0000 C   0  0  0  0  0  0  0  0  0  0  0  0
    4.5000   -3.5000    0.0000 P   0  3  0  0  0  0  0  0  0  0  0  0
    4.5000   -4.5000    0.0000 C   0  0  0  0  0  0  0  0  0  0  0  0
    5.3660   -5.0000    0.0000 C   0  0  0  0  0  0  0  0  0  0  0  0
    5.3660   -6.0000    0.0000 C   0  0  0  0  0  0  0  0  0  0  0  0
    4.5000   -6.5000    0.0000 C   0  0  0  0  0  0  0  0  0  0  0  0
    3.6340   -6.0000    0.0000 C   0  0  0  0  0  0  0  0  0  0  0  0
    3.6340   -5.0000    0.0000 C   0  0  0  0  0  0  0  0  0  0  0  0
    5.5000   -3.5000    0.0000 C   0  0  0  0  0  0  0  0  0  0  0  0
    6.0000   -2.6340    0.0000 C   0  0  0  0  0  0  0  0  0  0  0  0
    7.0000   -2.6340    0.0000 C   0  0  0  0  0  0  0  0  0  0  0  0
    7.5000   -3.5000    0.0000 C   0  0  0  0  0  0  0  0  0  0  0  0
    7.0000   -4.3660    0.0000 C   0  0  0  0  0  0  0  0  0  0  0  0
    6.0000   -4.3660    0.0000 C   0  0  0  0  0  0  0  0  0  0  0  0
    4.5000   -2.5000    0.0000 C   0  0  0  0  0  0  0  0  0  0  0  0
    3.6340   -2.0000    0.0000 C   0  0  0  0  0  0  0  0  0  0  0  0
    3.6340   -1.0000    0.0000 C   0  0  0  0  0  0  0  0  0  0  0  0
    4.5000   -0.5000    0.0000 C   0  0  0  0  0  0  0  0  0  0  0  0
    5.3660   -1.0000    0.0000 C   0  0  0  0  0  0  0  0  0  0  0  0
    5.3660   -2.0000    0.0000 C   0  0  0  0  0  0  0  0  0  0  0  0
    3.0000   -4.3660    0.0000 C   0  0  0  0  0  0  0  0  0  0  0  0
    9.5000   -2.5000    0.0000 O   0  5  0  0  0  0  0  0  0  0  0  0
    9.5000   -1.5000    0.0000 S   0  0  0  0  0  0  0  0  0  0  0  0
   10.5000   -1.5000    0.0000 C   0  0  0  0  0  0  0  0  0  0  0  0
   11.3660   -1.0000    0.0000 F   0  0  0  0  0  0  0  0  0  0  0  0
   10.5000   -0.5000    0.0000 F   0  0  0  0  0  0  0  0  0  0  0  0
   11.0000   -2.3660    0.0000 F   0  0  0  0  0  0  0  0  0  0  0  0
    9.5000   -0.5000    0.0000 O   0  0  0  0  0  0  0  0  0  0  0  0
    8.5000   -1.5000    0.0000 O   0  0  0  0  0  0  0  0  0  0  0  0
  1  2  1  0  0  0  0
  2  3  1  0  0  0  0
  3 27  2  0  0  0  0
  3  4  1  0  0  0  0
  4  5  2  0  0  0  0
  5  6  1  0  0  0  0
  6  7  2  0  0  0  0
  7  8  1  0  0  0  0
  7 27  1  0  0  0  0
  8  9  1  0  0  0  0
  8 15  1  0  0  0  0
  8 21  1  0  0  0  0
  9 14  2  0  0  0  0
  9 10  1  0  0  0  0
 10 11  2  0  0  0  0
 11 12  1  0  0  0  0
 12 13  2  0  0  0  0
 13 14  1  0  0  0  0
 15 20  2  0  0  0  0
 15 16  1  0  0  0  0
 16 17  2  0  0  0  0
 17 18  1  0  0  0  0
 18 19  2  0  0  0  0
 19 20  1  0  0  0  0
 21 26  2  0  0  0  0
 21 22  1  0  0  0  0
 22 23  2  0  0  0  0
 23 24  1  0  0  0  0
 24 25  2  0  0  0  0
 25 26  1  0  0  0  0
 28 29  1  0  0  0  0
 29 30  1  0  0  0  0
 29 34  2  0  0  0  0
 29 35  2  0  0  0  0
 30 31  1  0  0  0  0
 30 32  1  0  0  0  0
 30 33  1  0  0  0  0
M  END
> <NMREDATA_VERSION>
1.1

> <NMREDATA_LEVEL>
0

> <NMREDATA_SOLVENT>
CDCl3

> <NMREDATA_FORMULA>
C25H21F3NO4PS

> <NMREDATA_SMILES>
FC(S(=O)(=O)[O-])(F)F.COc1nccc(c1)[P+](c1ccccc1)(c1ccccc1)c1ccccc1

> <NMREDATA_ASSIGNMENT>
P8, 22.37, 8

> <NMREDATA_1D_31P>
Larmor=162
22.37, L=P8

$$$$
