
 OpenBabel06112616462D

 58 62  0  0  1  0  0  0  0  0999 V2000
   -4.5000   -7.0622    0.0000 C   0  0  0  0  0  0  0  0  0  0  0  0
   -5.5000   -7.0622    0.0000 C   0  0  0  0  0  0  0  0  0  0  0  0
   -6.0000   -6.1962    0.0000 C   0  0  0  0  0  0  0  0  0  0  0  0
   -5.5000   -5.3301    0.0000 C   0  0  0  0  0  0  0  0  0  0  0  0
   -6.0000   -4.4641    0.0000 O   0  0  0  0  0  0  0  0  0  0  0  0
   -5.5000   -3.5981    0.0000 C   0  0  0  0  0  0  0  0  0  0  0  0
   -6.0000   -2.7321    0.0000 O   0  0  0  0  0  0  0  0  0  0  0  0
   -4.5000   -3.5981    0.0000 C   0  0  0  0  0  0  0  0  0  0  0  0
   -4.0000   -2.7321    0.0000 C   0  0  3  0  0  0  0  0  0  0  0  0
   -3.0000   -2.7321    0.0000 C   0  0  0  0  0  0  0  0  0  0  0  0
   -2.5000   -3.5981    0.0000 C   0  0  0  0  0  0  0  0  0  0  0  0
   -1.5000   -3.5981    0.0000 C   0  0  0  0  0  0  0  0  0  0  0  0
   -1.0000   -2.7321    0.0000 C   0  0  0  0  0  0  0  0  0  0  0  0
   -1.5000   -1.8660    0.0000 C   0  0  0  0  0  0  0  0  0  0  0  0
   -1.0000   -1.0000    0.0000 C   0  0  3  0  0  0  0  0  0  0  0  0
   -1.5000   -0.1340    0.0000 C   0  0  0  0  0  0  0  0  0  0  0  0
   -2.5000   -0.1340    0.0000 C   0  0  0  0  0  0  0  0  0  0  0  0
   -3.0000   -1.0000    0.0000 O   0  5  0  0  0  0  0  0  0  0  0  0
   -3.0000    0.7321    0.0000 C   0  0  0  0  0  0  0  0  0  0  0  0
   -4.0000    0.7321    0.0000 C   0  0  0  0  0  0  0  0  0  0  0  0
   -4.5000    1.5981    0.0000 C   0  0  0  0  0  0  0  0  0  0  0  0
   -4.0000    2.4641    0.0000 C   0  0  0  0  0  0  0  0  0  0  0  0
   -3.0000    2.4641    0.0000 C   0  0  0  0  0  0  0  0  0  0  0  0
   -2.5000    1.5981    0.0000 C   0  0  0  0  0  0  0  0  0  0  0  0
   -1.5000    1.5981    0.0000 O   0  0  0  0  0  0  0  0  0  0  0  0
   -1.0000    0.7321    0.0000 C   0  0  0  0  0  0  0  0  0  0  0  0
    0.0000    0.7321    0.0000 O   0  0  0  0  0  0  0  0  0  0  0  0
    0.0000   -1.0000    0.0000 P   0  3  0  0  0  0  0  0  0  0  0  0
    0.0000   -2.0000    0.0000 C   0  0  0  0  0  0  0  0  0  0  0  0
    0.8660   -2.5000    0.0000 C   0  0  0  0  0  0  0  0  0  0  0  0
    0.8660   -3.5000    0.0000 C   0  0  0  0  0  0  0  0  0  0  0  0
    1.7321   -4.0000    0.0000 C   0  0  0  0  0  0  0  0  0  0  0  0
    1.0000   -1.0000    0.0000 C   0  0  0  0  0  0  0  0  0  0  0  0
    1.5000   -0.1340    0.0000 C   0  0  0  0  0  0  0  0  0  0  0  0
    2.5000   -0.1340    0.0000 C   0  0  0  0  0  0  0  0  0  0  0  0
    3.0000    0.7321    0.0000 C   0  0  0  0  0  0  0  0  0  0  0  0
    0.0000    0.0000    0.0000 C   0  0  0  0  0  0  0  0  0  0  0  0
    0.8660    0.5000    0.0000 C   0  0  0  0  0  0  0  0  0  0  0  0
    0.8660    1.5000    0.0000 C   0  0  0  0  0  0  0  0  0  0  0  0
    1.7321    2.0000    0.0000 C   0  0  0  0  0  0  0  0  0  0  0  0
   -2.5000   -1.8660    0.0000 C   0  0  0  0  0  0  0  0  0  0  0  0
   -4.5000   -1.8660    0.0000 P   0  3  0  0  0  0  0  0  0  0  0  0
   -3.6340   -1.3660    0.0000 C   0  0  0  0  0  0  0  0  0  0  0  0
   -3.6340   -0.3660    0.0000 C   0  0  0  0  0  0  0  0  0  0  0  0
   -4.5000    0.1340    0.0000 C   0  0  0  0  0  0  0  0  0  0  0  0
   -5.3660   -0.3660    0.0000 C   0  0  0  0  0  0  0  0  0  0  0  0
   -5.0000   -1.0000    0.0000 C   0  0  0  0  0  0  0  0  0  0  0  0
   -6.0000   -1.0000    0.0000 C   0  0  0  0  0  0  0  0  0  0  0  0
   -6.5000   -0.1340    0.0000 C   0  0  0  0  0  0  0  0  0  0  0  0
   -7.5000   -0.1340    0.0000 C   0  0  0  0  0  0  0  0  0  0  0  0
   -5.3660   -2.3660    0.0000 C   0  0  0  0  0  0  0  0  0  0  0  0
   -6.2321   -1.8660    0.0000 C   0  0  0  0  0  0  0  0  0  0  0  0
   -7.0981   -2.3660    0.0000 C   0  0  0  0  0  0  0  0  0  0  0  0
   -7.0981   -3.3660    0.0000 C   0  0  0  0  0  0  0  0  0  0  0  0
   -4.0000   -4.4641    0.0000 C   0  0  0  0  0  0  0  0  0  0  0  0
   -3.0000   -4.4641    0.0000 O   0  5  0  0  0  0  0  0  0  0  0  0
   -4.5000   -5.3301    0.0000 C   0  0  0  0  0  0  0  0  0  0  0  0
   -4.0000   -6.1962    0.0000 C   0  0  0  0  0  0  0  0  0  0  0  0
  1 58  2  0  0  0  0
  1  2  1  0  0  0  0
  2  3  2  0  0  0  0
  3  4  1  0  0  0  0
  4 57  2  0  0  0  0
  4  5  1  0  0  0  0
  5  6  1  0  0  0  0
  6  7  2  0  0  0  0
  6  8  1  0  0  0  0
  8  9  1  0  0  0  0
  8 55  2  0  0  0  0
  9 10  1  0  0  0  0
  9 42  1  0  0  0  0
 10 41  2  0  0  0  0
 10 11  1  0  0  0  0
 11 12  2  0  0  0  0
 12 13  1  0  0  0  0
 13 14  2  0  0  0  0
 14 15  1  0  0  0  0
 14 41  1  0  0  0  0
 15 16  1  0  0  0  0
 15 28  1  0  0  0  0
 16 26  1  0  0  0  0
 16 17  2  0  0  0  0
 17 18  1  0  0  0  0
 17 19  1  0  0  0  0
 19 24  2  0  0  0  0
 19 20  1  0  0  0  0
 20 21  2  0  0  0  0
 21 22  1  0  0  0  0
 22 23  2  0  0  0  0
 23 24  1  0  0  0  0
 24 25  1  0  0  0  0
 25 26  1  0  0  0  0
 26 27  2  0  0  0  0
 28 29  1  0  0  0  0
 28 33  1  0  0  0  0
 28 37  1  0  0  0  0
 29 30  1  0  0  0  0
 30 31  1  0  0  0  0
 31 32  1  0  0  0  0
 33 34  1  0  0  0  0
 34 35  1  0  0  0  0
 35 36  1  0  0  0  0
 37 38  1  0  0  0  0
 38 39  1  0  0  0  0
 39 40  1  0  0  0  0
 42 43  1  0  0  0  0
 42 47  1  0  0  0  0
 42 51  1  0  0  0  0
 43 44  1  0  0  0  0
 44 45  1  0  0  0  0
 45 46  1  0  0  0  0
 47 48  1  0  0  0  0
 48 49  1  0  0  0  0
 49 50  1  0  0  0  0
 51 52  1  0  0  0  0
 52 53  1  0  0  0  0
 53 54  1  0  0  0  0
 55 56  1  0  0  0  0
 55 57  1  0  0  0  0
 57 58  1  0  0  0  0
M  END
> <NMREDATA_VERSION>
1.1

> <NMREDATA_LEVEL>
0

> <NMREDATA_SOLVENT>
CDCl3

> <NMREDATA_FORMULA>
C50H68O6P2

> <NMREDATA_SMILES>
CCCC[P+](C(c1c(=O)oc2c(c1[O-])cccc2)c1cccc(c1)C([P+](CCCC)(CCCC)CCCC)c1c(=O)oc2c(c1[O-])cccc2)(CCCC)CCCC

> <NMREDATA_ASSIGNMENT>
P28, 34.20, 28
P42, 34.20, 42

> <NMREDATA_1D_31P>
Larmor=200
34.20, L=P28
34.20, L=P42

$$$$
