
 OpenBabel06112616432D

 31 34  0  0  1  0  0  0  0  0999 V2000
   -3.0176    0.0039    0.0000 C   0  0  0  0  0  0  0  0  0  0  0  0
   -2.5176   -0.8621    0.0000 C   0  0  3  0  0  0  0  0  0  0  0  0
   -3.2692   -0.6906    0.0000 C   0  0  0  0  0  0  0  0  0  0  0  0
   -3.6036    0.0039    0.0000 C   0  0  3  0  0  0  0  0  0  0  0  0
   -3.2692    0.6984    0.0000 C   0  0  0  0  0  0  0  0  0  0  0  0
   -2.5176    0.8700    0.0000 C   0  0  3  0  0  0  0  0  0  0  0  0
   -1.5176    0.8700    0.0000 C   0  0  0  0  0  0  0  0  0  0  0  0
   -1.0176    0.0039    0.0000 C   0  0  3  0  0  0  0  0  0  0  0  0
    2.7376    1.0020    0.0000 C   0  0  0  0  0  0  0  0  0  0  0  0
    1.8698    1.5031    0.0000 C   0  0  0  0  0  0  0  0  0  0  0  0
    1.0020    1.0020    0.0000 O   0  0  0  0  0  0  0  0  0  0  0  0
    1.0020    0.0000    0.0000 P   0  0  0  0  0  0  0  0  0  0  0  0
    2.0041    0.0000    0.0000 O   0  0  0  0  0  0  0  0  0  0  0  0
    2.5051   -0.8678    0.0000 C   0  0  0  0  0  0  0  0  0  0  0  0
    1.0020   -1.0020    0.0000 O   0  0  0  0  0  0  0  0  0  0  0  0
    0.1342   -1.5031    0.0000 C   0  0  0  0  0  0  0  0  0  0  0  0
    0.0000    0.0000    0.0000 O   0  0  0  0  0  0  0  0  0  0  0  0
    1.8698    2.5051    0.0000 C   0  0  0  0  0  0  0  0  0  0  0  0
    1.0020    3.0061    0.0000 C   0  0  0  0  0  0  0  0  0  0  0  0
    0.2570    2.3361    0.0000 C   0  0  0  0  0  0  0  0  0  0  0  0
   -0.6958    2.6463    0.0000 C   0  0  0  0  0  0  0  0  0  0  0  0
   -0.9036    3.6265    0.0000 O   0  0  0  0  0  0  0  0  0  0  0  0
   -1.8564    3.9367    0.0000 C   0  0  0  0  0  0  0  0  0  0  0  0
   -2.0642    4.9170    0.0000 C   0  0  0  0  0  0  0  0  0  0  0  0
   -1.4409    1.9762    0.0000 O   0  0  0  0  0  0  0  0  0  0  0  0
    2.7376    3.0061    0.0000 C   0  0  0  0  0  0  0  0  0  0  0  0
    3.6054    2.5051    0.0000 C   0  0  0  0  0  0  0  0  0  0  0  0
    4.4732    3.0061    0.0000 C   0  0  0  0  0  0  0  0  0  0  0  0
    3.6054    1.5031    0.0000 C   0  0  0  0  0  0  0  0  0  0  0  0
   -1.5176   -0.8621    0.0000 C   0  0  0  0  0  0  0  0  0  0  0  0
   -2.3106   -0.7426    0.0000 C   0  0  0  0  0  0  0  0  0  0  0  0
  1  6  1  0  0  0  0
  1  2  1  0  0  0  0
  2 30  1  0  0  0  0
  2  3  1  0  0  0  0
  3  4  1  0  0  0  0
  4 31  1  0  0  0  0
  4  5  1  0  0  0  0
  5  6  1  0  0  0  0
  6  7  1  0  0  0  0
  7  8  1  0  0  0  0
  8  9  1  0  0  0  0
  8 30  1  0  0  0  0
  8 31  1  0  0  0  0
  9 29  2  0  0  0  0
  9 10  1  0  0  0  0
 10 11  1  0  0  0  0
 10 18  2  0  0  0  0
 11 12  1  0  0  0  0
 12 13  1  0  0  0  0
 12 15  1  0  0  0  0
 12 17  2  0  0  0  0
 13 14  1  0  0  0  0
 15 16  1  0  0  0  0
 18 19  1  0  0  0  0
 18 26  1  0  0  0  0
 19 20  2  0  0  0  0
 20 21  1  0  0  0  0
 21 22  1  0  0  0  0
 21 25  2  0  0  0  0
 22 23  1  0  0  0  0
 23 24  1  0  0  0  0
 26 27  2  0  0  0  0
 27 28  1  0  0  0  0
 27 29  1  0  0  0  0
M  END
> <NMREDATA_VERSION>
1.1

> <NMREDATA_LEVEL>
0

> <NMREDATA_SOLVENT>
CDCl3

> <NMREDATA_FORMULA>
C24H33O6P

> <NMREDATA_SMILES>
CCOC(=O)/C=C/c1cc(C)cc(c1OP(=O)(OC)OC)C12CC3CC(C2)CC(C1)C3

> <NMREDATA_ASSIGNMENT>
P12, -4.00, 12

> <NMREDATA_1D_31P>
Larmor=162
-4.00, L=P12

$$$$
