
 OpenBabel06112616472D

 24 27  0  0  1  0  0  0  0  0999 V2000
   -1.6732    0.0000    0.0000 P   0  0  0  0  0  0  0  0  0  0  0  0
   -1.6732   -0.9660    0.0000 C   0  0  0  0  0  0  0  0  0  0  0  0
   -2.5099   -1.4491    0.0000 C   0  0  0  0  0  0  0  0  0  0  0  0
   -0.4394    1.7713    0.0000 B   0  0  0  0  0  0  0  0  0  0  0  0
    0.0606    2.6374    0.0000 C   0  0  3  0  0  0  0  0  0  0  0  0
    0.2879    1.9008    0.0000 C   0  0  0  0  0  0  0  0  0  0  0  0
   -0.1464    1.2639    0.0000 C   0  0  0  0  0  0  0  0  0  0  0  0
   -0.9151    1.2063    0.0000 C   0  0  0  0  0  0  0  0  0  0  0  0
   -1.4394    1.7713    0.0000 C   0  0  3  0  0  0  0  0  0  0  0  0
   -1.9394    2.6374    0.0000 C   0  0  0  0  0  0  0  0  0  0  0  0
   -1.4394    3.5034    0.0000 C   0  0  0  0  0  0  0  0  0  0  0  0
   -0.4394    3.5034    0.0000 C   0  0  0  0  0  0  0  0  0  0  0  0
   -0.8366    0.4830    0.0000 C   0  0  0  0  0  0  0  0  0  0  0  0
   -0.8366    1.4491    0.0000 C   0  0  0  0  0  0  0  0  0  0  0  0
    0.0000    1.9321    0.0000 C   0  0  0  0  0  0  0  0  0  0  0  0
    0.8366    1.4491    0.0000 C   0  0  0  0  0  0  0  0  0  0  0  0
    0.8366    0.4830    0.0000 C   0  0  0  0  0  0  0  0  0  0  0  0
    0.0000    0.0000    0.0000 C   0  0  0  0  0  0  0  0  0  0  0  0
   -2.5099    0.4830    0.0000 C   0  0  0  0  0  0  0  0  0  0  0  0
   -3.4759    0.4830    0.0000 C   0  0  0  0  0  0  0  0  0  0  0  0
   -3.9589    1.3196    0.0000 C   0  0  0  0  0  0  0  0  0  0  0  0
   -3.4759    2.1563    0.0000 C   0  0  0  0  0  0  0  0  0  0  0  0
   -2.5099    2.1563    0.0000 C   0  0  0  0  0  0  0  0  0  0  0  0
   -2.0268    1.3196    0.0000 C   0  0  0  0  0  0  0  0  0  0  0  0
  1  2  1  0  0  0  0
  1 13  1  0  0  0  0
  1 19  1  0  0  0  0
  2  3  1  0  0  0  0
  3  4  1  0  0  0  0
  4  9  1  0  0  0  0
  4  5  1  0  0  0  0
  5 12  1  0  0  0  0
  5  6  1  0  0  0  0
  6  7  1  0  0  0  0
  7  8  1  0  0  0  0
  8  9  1  0  0  0  0
  9 10  1  0  0  0  0
 10 11  1  0  0  0  0
 11 12  1  0  0  0  0
 13 18  1  0  0  0  0
 13 14  1  0  0  0  0
 14 15  1  0  0  0  0
 15 16  1  0  0  0  0
 16 17  1  0  0  0  0
 17 18  1  0  0  0  0
 19 24  1  0  0  0  0
 19 20  1  0  0  0  0
 20 21  1  0  0  0  0
 21 22  1  0  0  0  0
 22 23  1  0  0  0  0
 23 24  1  0  0  0  0
M  END
> <NMREDATA_VERSION>
1.1

> <NMREDATA_LEVEL>
0

> <NMREDATA_SOLVENT>
CDCl3

> <NMREDATA_FORMULA>
C22H40BP

> <NMREDATA_SMILES>
C1CCC(CC1)P(C1CCCCC1)CCB1C2CCCC1CCC2

> <NMREDATA_ASSIGNMENT>
P1, 3.80, 1

> <NMREDATA_1D_31P>
Larmor=162
3.80, L=P1

$$$$
