
 OpenBabel06112616442D

 37 40  0  0  0  0  0  0  0  0999 V2000
    5.0900   -2.8559    0.0000 C   0  0  0  0  0  0  0  0  0  0  0  0
    4.4665   -3.6378    0.0000 C   0  0  0  0  0  0  0  0  0  0  0  0
    4.3175   -4.6266    0.0000 C   0  0  0  0  0  0  0  0  0  0  0  0
    5.2483   -4.2613    0.0000 C   0  0  0  0  0  0  0  0  0  0  0  0
    3.4777   -3.4887    0.0000 C   0  0  0  0  0  0  0  0  0  0  0  0
    2.8542   -4.2706    0.0000 C   0  0  0  0  0  0  0  0  0  0  0  0
    1.8653   -4.1215    0.0000 C   0  0  0  0  0  0  0  0  0  0  0  0
    1.5000   -3.1906    0.0000 C   0  0  0  0  0  0  0  0  0  0  0  0
    2.1235   -2.4088    0.0000 C   0  0  0  0  0  0  0  0  0  0  0  0
    3.1123   -2.5579    0.0000 C   0  0  0  0  0  0  0  0  0  0  0  0
    1.9010   -1.4339    0.0000 C   0  0  0  0  0  0  0  0  0  0  0  0
    2.6828   -0.8104    0.0000 C   0  0  0  0  0  0  0  0  0  0  0  0
    2.5338    0.1784    0.0000 C   0  0  0  0  0  0  0  0  0  0  0  0
    3.3156    0.8019    0.0000 C   0  0  0  0  0  0  0  0  0  0  0  0
    4.2465    0.4366    0.0000 C   0  0  0  0  0  0  0  0  0  0  0  0
    4.3955   -0.5522    0.0000 C   0  0  0  0  0  0  0  0  0  0  0  0
    3.6137   -1.1757    0.0000 C   0  0  0  0  0  0  0  0  0  0  0  0
    1.0000   -1.0000    0.0000 C   0  0  0  0  0  0  0  0  0  0  0  0
    1.0000    0.0000    0.0000 P   0  0  0  0  0  0  0  0  0  0  0  0
    2.0000    0.0000    0.0000 O   0  0  0  0  0  0  0  0  0  0  0  0
    1.0000    1.0000    0.0000 O   0  0  0  0  0  0  0  0  0  0  0  0
    0.1340    1.5000    0.0000 C   0  0  0  0  0  0  0  0  0  0  0  0
    0.1340    2.5000    0.0000 C   0  0  0  0  0  0  0  0  0  0  0  0
    0.0000    0.0000    0.0000 O   0  0  0  0  0  0  0  0  0  0  0  0
   -0.5000    0.8660    0.0000 C   0  0  0  0  0  0  0  0  0  0  0  0
   -1.5000    0.8660    0.0000 C   0  0  0  0  0  0  0  0  0  0  0  0
    0.0990   -1.4339    0.0000 C   0  0  0  0  0  0  0  0  0  0  0  0
   -0.6828   -0.8104    0.0000 O   0  0  0  0  0  0  0  0  0  0  0  0
   -0.1235   -2.4088    0.0000 C   0  0  0  0  0  0  0  0  0  0  0  0
   -1.1123   -2.5579    0.0000 C   0  0  0  0  0  0  0  0  0  0  0  0
   -1.4777   -3.4887    0.0000 C   0  0  0  0  0  0  0  0  0  0  0  0
   -2.4665   -3.6378    0.0000 N   0  3  0  0  0  0  0  0  0  0  0  0
   -3.0900   -2.8559    0.0000 O   0  0  0  0  0  0  0  0  0  0  0  0
   -2.8318   -4.5686    0.0000 O   0  5  0  0  0  0  0  0  0  0  0  0
   -0.8542   -4.2706    0.0000 C   0  0  0  0  0  0  0  0  0  0  0  0
    0.1347   -4.1215    0.0000 C   0  0  0  0  0  0  0  0  0  0  0  0
    0.5000   -3.1906    0.0000 C   0  0  0  0  0  0  0  0  0  0  0  0
  1  2  1  0  0  0  0
  2  3  1  0  0  0  0
  2  4  1  0  0  0  0
  2  5  1  0  0  0  0
  5 10  2  0  0  0  0
  5  6  1  0  0  0  0
  6  7  2  0  0  0  0
  7  8  1  0  0  0  0
  8 37  1  0  0  0  0
  8  9  2  0  0  0  0
  9 10  1  0  0  0  0
  9 11  1  0  0  0  0
 11 12  1  0  0  0  0
 11 18  2  0  0  0  0
 12 17  2  0  0  0  0
 12 13  1  0  0  0  0
 13 14  2  0  0  0  0
 14 15  1  0  0  0  0
 15 16  2  0  0  0  0
 16 17  1  0  0  0  0
 18 19  1  0  0  0  0
 18 27  1  0  0  0  0
 19 20  2  0  0  0  0
 19 21  1  0  0  0  0
 19 24  1  0  0  0  0
 21 22  1  0  0  0  0
 22 23  1  0  0  0  0
 24 25  1  0  0  0  0
 25 26  1  0  0  0  0
 27 28  2  0  0  0  0
 27 29  1  0  0  0  0
 29 37  2  0  0  0  0
 29 30  1  0  0  0  0
 30 31  2  0  0  0  0
 31 32  1  0  0  0  0
 31 35  1  0  0  0  0
 32 33  2  0  0  0  0
 32 34  1  0  0  0  0
 35 36  2  0  0  0  0
 36 37  1  0  0  0  0
M  END
> <NMREDATA_VERSION>
1.1

> <NMREDATA_LEVEL>
0

> <NMREDATA_SOLVENT>
CDCl3

> <NMREDATA_FORMULA>
C29H30NO6P

> <NMREDATA_SMILES>
CCOP(=O)(c1c(c2ccccc2)c2cc(ccc2c2c(c1=O)cc(cc2)[N+](=O)[O-])C(C)(C)C)OCC

> <NMREDATA_ASSIGNMENT>
P19, 10.45, 19

> <NMREDATA_1D_31P>
Larmor=243
10.45, L=P19

$$$$
