
 OpenBabel06112616442D

 34 38  0  0  0  0  0  0  0  0999 V2000
    2.1020    2.7805    0.0000 C   0  0  0  0  0  0  0  0  0  0  0  0
    2.9047    2.3171    0.0000 C   0  0  0  0  0  0  0  0  0  0  0  0
    3.7073    2.7805    0.0000 C   0  0  0  0  0  0  0  0  0  0  0  0
    4.5100    2.3171    0.0000 C   0  0  0  0  0  0  0  0  0  0  0  0
    5.3126    2.7805    0.0000 C   0  0  0  0  0  0  0  0  0  0  0  0
    4.5100    1.3902    0.0000 C   0  0  0  0  0  0  0  0  0  0  0  0
    3.7073    0.9268    0.0000 C   0  0  0  0  0  0  0  0  0  0  0  0
    3.7073    0.0000    0.0000 P   0  0  0  0  0  0  0  0  0  0  0  0
    4.6341    0.0000    0.0000 S   0  0  0  0  0  0  0  0  0  0  0  0
    3.7073   -0.9268    0.0000 C   0  0  0  0  0  0  0  0  0  0  0  0
    2.9047   -1.3902    0.0000 C   0  0  0  0  0  0  0  0  0  0  0  0
    2.9047   -2.3171    0.0000 C   0  0  0  0  0  0  0  0  0  0  0  0
    2.1020   -2.7805    0.0000 C   0  0  0  0  0  0  0  0  0  0  0  0
    3.7073   -2.7805    0.0000 C   0  0  0  0  0  0  0  0  0  0  0  0
    4.5100   -2.3171    0.0000 C   0  0  0  0  0  0  0  0  0  0  0  0
    5.3126   -2.7805    0.0000 C   0  0  0  0  0  0  0  0  0  0  0  0
    4.5100   -1.3902    0.0000 C   0  0  0  0  0  0  0  0  0  0  0  0
    0.0000    0.0000    0.0000 C   0  0  0  0  0  0  0  0  0  0  0  0
   -0.4634   -0.8027    0.0000 C   0  0  0  0  0  0  0  0  0  0  0  0
   -1.3902   -0.8027    0.0000 C   0  0  0  0  0  0  0  0  0  0  0  0
   -1.8537    0.0000    0.0000 C   0  0  0  0  0  0  0  0  0  0  0  0
   -1.3902    0.8027    0.0000 C   0  0  0  0  0  0  0  0  0  0  0  0
   -0.4634    0.8027    0.0000 C   0  0  0  0  0  0  0  0  0  0  0  0
    0.0000    1.6053    0.0000 C   0  0  0  0  0  0  0  0  0  0  0  0
    0.9268    1.6053    0.0000 C   0  0  0  0  0  0  0  0  0  0  0  0
    1.3902    2.4080    0.0000 C   0  0  0  0  0  0  0  0  0  0  0  0
    0.9268    3.2106    0.0000 C   0  0  0  0  0  0  0  0  0  0  0  0
    1.3902    4.0133    0.0000 C   0  0  0  0  0  0  0  0  0  0  0  0
    0.0000    3.2106    0.0000 C   0  0  0  0  0  0  0  0  0  0  0  0
   -0.6202    3.8994    0.0000 N   0  0  0  0  0  0  0  0  0  0  0  0
   -1.4669    3.5224    0.0000 S   0  0  0  0  0  0  0  0  0  0  0  0
   -1.3700    2.6007    0.0000 N   0  0  0  0  0  0  0  0  0  0  0  0
   -0.4634    2.4080    0.0000 C   0  0  0  0  0  0  0  0  0  0  0  0
    2.9047    1.3902    0.0000 C   0  0  0  0  0  0  0  0  0  0  0  0
  1  2  1  0  0  0  0
  2 34  2  0  0  0  0
  2  3  1  0  0  0  0
  3  4  2  0  0  0  0
  4  5  1  0  0  0  0
  4  6  1  0  0  0  0
  6  7  2  0  0  0  0
  7  8  1  0  0  0  0
  7 34  1  0  0  0  0
  8  9  2  0  0  0  0
  8 10  1  0  0  0  0
  8 18  1  0  0  0  0
 10 17  2  0  0  0  0
 10 11  1  0  0  0  0
 11 12  2  0  0  0  0
 12 13  1  0  0  0  0
 12 14  1  0  0  0  0
 14 15  2  0  0  0  0
 15 16  1  0  0  0  0
 15 17  1  0  0  0  0
 18 23  2  0  0  0  0
 18 19  1  0  0  0  0
 19 20  2  0  0  0  0
 20 21  1  0  0  0  0
 21 22  2  0  0  0  0
 22 23  1  0  0  0  0
 23 24  1  0  0  0  0
 24 33  1  0  0  0  0
 24 25  2  0  0  0  0
 25 26  1  0  0  0  0
 26 27  2  0  0  0  0
 27 28  1  0  0  0  0
 27 29  1  0  0  0  0
 29 33  1  0  0  0  0
 29 30  2  0  0  0  0
 30 31  1  0  0  0  0
 31 32  1  0  0  0  0
 32 33  2  0  0  0  0
M  END
> <NMREDATA_VERSION>
1.1

> <NMREDATA_LEVEL>
0

> <NMREDATA_SOLVENT>
CDCl3

> <NMREDATA_FORMULA>
C29H27N2PS2

> <NMREDATA_SMILES>
Cc1cc(C)cc(c1)P(=S)(c1ccccc1c1ccc(c2c1nsn2)C)c1cc(C)cc(c1)C

> <NMREDATA_ASSIGNMENT>
P8, 41.10, 8

> <NMREDATA_1D_31P>
Larmor=200
41.10, L=P8

$$$$
