
 OpenBabel06112616492D

 30 32  0  0  1  0  0  0  0  0999 V2000
   -2.8769    1.0122    0.0000 C   0  0  0  0  0  0  0  0  0  0  0  0
   -3.0034    0.0508    0.0000 O   0  0  0  0  0  0  0  0  0  0  0  0
   -2.2341   -0.5395    0.0000 C   0  0  0  0  0  0  0  0  0  0  0  0
   -1.3382   -0.1685    0.0000 C   0  0  0  0  0  0  0  0  0  0  0  0
   -0.5689   -0.7588    0.0000 C   0  0  0  0  0  0  0  0  0  0  0  0
   -0.6955   -1.7202    0.0000 C   0  0  0  0  0  0  0  0  0  0  0  0
    0.0738   -2.3105    0.0000 S   0  0  0  0  0  0  0  0  0  0  0  0
    0.9697   -1.9394    0.0000 C   0  0  2  0  0  0  0  0  0  0  0  0
    0.9697    0.0000    0.0000 P   0  0  0  0  0  0  0  0  0  0  0  0
    1.9394    0.0000    0.0000 O   0  0  0  0  0  0  0  0  0  0  0  0
    0.9697    0.9697    0.0000 O   0  0  0  0  0  0  0  0  0  0  0  0
    1.8095    1.4545    0.0000 C   0  0  0  0  0  0  0  0  0  0  0  0
    2.6493    0.9697    0.0000 C   0  0  0  0  0  0  0  0  0  0  0  0
    0.0000    0.0000    0.0000 O   0  0  0  0  0  0  0  0  0  0  0  0
   -0.4848    0.8398    0.0000 C   0  0  0  0  0  0  0  0  0  0  0  0
    0.0000    1.6796    0.0000 C   0  0  0  0  0  0  0  0  0  0  0  0
    1.7390   -1.3491    0.0000 C   0  0  0  0  0  0  0  0  0  0  0  0
    2.6349   -1.7202    0.0000 C   0  0  0  0  0  0  0  0  0  0  0  0
    2.7615   -2.6816    0.0000 C   0  0  0  0  0  0  0  0  0  0  0  0
    3.6573   -3.0527    0.0000 C   0  0  0  0  0  0  0  0  0  0  0  0
    3.7839   -4.0141    0.0000 C   0  0  0  0  0  0  0  0  0  0  0  0
    4.6798   -4.3851    0.0000 O   0  0  0  0  0  0  0  0  0  0  0  0
    5.4491   -3.7948    0.0000 C   0  0  0  0  0  0  0  0  0  0  0  0
    3.0146   -4.6044    0.0000 C   0  0  0  0  0  0  0  0  0  0  0  0
    2.1187   -4.2333    0.0000 C   0  0  0  0  0  0  0  0  0  0  0  0
    1.9922   -3.2719    0.0000 C   0  0  0  0  0  0  0  0  0  0  0  0
    1.0963   -2.9008    0.0000 C   0  0  0  0  0  0  0  0  0  0  0  0
    0.3270   -3.4911    0.0000 O   0  0  0  0  0  0  0  0  0  0  0  0
   -1.5914   -2.0913    0.0000 C   0  0  0  0  0  0  0  0  0  0  0  0
   -2.3607   -1.5009    0.0000 C   0  0  0  0  0  0  0  0  0  0  0  0
  1  2  1  0  0  0  0
  2  3  1  0  0  0  0
  3 30  2  0  0  0  0
  3  4  1  0  0  0  0
  4  5  2  0  0  0  0
  5  6  1  0  0  0  0
  6  7  1  0  0  0  0
  6 29  2  0  0  0  0
  8  7  1  6  0  0  0
  8 27  1  0  0  0  0
  8  9  1  0  0  0  0
  8 17  1  0  0  0  0
  9 10  2  0  0  0  0
  9 11  1  0  0  0  0
  9 14  1  0  0  0  0
 11 12  1  0  0  0  0
 12 13  1  0  0  0  0
 14 15  1  0  0  0  0
 15 16  1  0  0  0  0
 17 18  1  0  0  0  0
 18 19  1  0  0  0  0
 19 26  2  0  0  0  0
 19 20  1  0  0  0  0
 20 21  2  0  0  0  0
 21 22  1  0  0  0  0
 21 24  1  0  0  0  0
 22 23  1  0  0  0  0
 24 25  2  0  0  0  0
 25 26  1  0  0  0  0
 26 27  1  0  0  0  0
 27 28  2  0  0  0  0
 29 30  1  0  0  0  0
M  END
> <NMREDATA_VERSION>
1.1

> <NMREDATA_LEVEL>
0

> <NMREDATA_SOLVENT>
CDCl3

> <NMREDATA_FORMULA>
C22H27O6PS

> <NMREDATA_SMILES>
CCOP(=O)([C@]1(CCc2c(C1=O)ccc(c2)OC)Sc1ccc(cc1)OC)OCC

> <NMREDATA_ASSIGNMENT>
P9, 22.23, 9

> <NMREDATA_1D_31P>
Larmor=202
22.23, L=P9

$$$$
