
 OpenBabel06112616472D

 21 23  0  0  0  0  0  0  0  0999 V2000
    0.0000    0.0000    0.0000 P   0  0  0  0  0  0  0  0  0  0  0  0
   -0.2508    0.9359    0.0000 O   0  0  0  0  0  0  0  0  0  0  0  0
   -0.9359   -0.2508    0.0000 O   0  0  0  0  0  0  0  0  0  0  0  0
   -1.6211    0.4344    0.0000 C   0  0  0  0  0  0  0  0  0  0  0  0
   -2.5570    0.1836    0.0000 C   0  0  0  0  0  0  0  0  0  0  0  0
    0.2508   -0.9359    0.0000 O   0  0  0  0  0  0  0  0  0  0  0  0
   -0.4344   -1.6211    0.0000 C   0  0  0  0  0  0  0  0  0  0  0  0
   -1.3703   -1.3703    0.0000 C   0  0  0  0  0  0  0  0  0  0  0  0
    0.9689    0.0000    0.0000 C   0  0  0  0  0  0  0  0  0  0  0  0
    1.4535   -0.8391    0.0000 C   0  0  0  0  0  0  0  0  0  0  0  0
    0.9689   -1.6787    0.0000 C   0  0  0  0  0  0  0  0  0  0  0  0
    1.4535   -2.5178    0.0000 C   0  0  0  0  0  0  0  0  0  0  0  0
    2.4230   -2.5178    0.0000 C   0  0  0  0  0  0  0  0  0  0  0  0
    2.9075   -1.6787    0.0000 C   0  0  0  0  0  0  0  0  0  0  0  0
    2.4230   -0.8391    0.0000 C   0  0  0  0  0  0  0  0  0  0  0  0
    2.4230    0.8396    0.0000 C   0  0  0  0  0  0  0  0  0  0  0  0
    2.9075    1.6792    0.0000 C   0  0  0  0  0  0  0  0  0  0  0  0
    2.4230    2.5183    0.0000 C   0  0  0  0  0  0  0  0  0  0  0  0
    1.4535    2.5183    0.0000 C   0  0  0  0  0  0  0  0  0  0  0  0
    0.9689    1.6792    0.0000 C   0  0  0  0  0  0  0  0  0  0  0  0
    1.4535    0.8396    0.0000 C   0  0  0  0  0  0  0  0  0  0  0  0
  1  2  2  0  0  0  0
  1  3  1  0  0  0  0
  1  6  1  0  0  0  0
  1  9  1  0  0  0  0
  3  4  1  0  0  0  0
  4  5  1  0  0  0  0
  6  7  1  0  0  0  0
  7  8  1  0  0  0  0
  9 21  1  0  0  0  0
  9 10  1  0  0  0  0
 10 15  2  0  0  0  0
 10 11  1  0  0  0  0
 11 12  2  0  0  0  0
 12 13  1  0  0  0  0
 13 14  2  0  0  0  0
 14 15  1  0  0  0  0
 15 16  1  0  0  0  0
 16 21  2  0  0  0  0
 16 17  1  0  0  0  0
 17 18  2  0  0  0  0
 18 19  1  0  0  0  0
 19 20  2  0  0  0  0
 20 21  1  0  0  0  0
M  END
> <NMREDATA_VERSION>
1.1

> <NMREDATA_LEVEL>
0

> <NMREDATA_SOLVENT>
CDCl3

> <NMREDATA_FORMULA>
C17H19O3P

> <NMREDATA_SMILES>
CCOP(=O)(C1c2ccccc2-c2c1cccc2)OCC

> <NMREDATA_ASSIGNMENT>
P1, 25.35, 1

> <NMREDATA_1D_31P>
Larmor=121
25.35, L=P1

$$$$
