
 OpenBabel06112616452D

 22 24  0  0  0  0  0  0  0  0999 V2000
   -1.8841   -1.9013    0.0000 C   0  0  0  0  0  0  0  0  0  0  0  0
   -0.9706   -1.4945    0.0000 C   0  0  0  0  0  0  0  0  0  0  0  0
   -0.8660   -0.5000    0.0000 C   0  0  0  0  0  0  0  0  0  0  0  0
   -1.6092    0.1691    0.0000 C   0  0  0  0  0  0  0  0  0  0  0  0
   -2.5873   -0.0388    0.0000 C   0  0  0  0  0  0  0  0  0  0  0  0
   -2.8963   -0.9898    0.0000 C   0  0  0  0  0  0  0  0  0  0  0  0
   -1.2024    1.0827    0.0000 P   0  0  3  0  0  0  0  0  0  0  0  0
   -1.2024    2.0827    0.0000 O   0  0  0  0  0  0  0  0  0  0  0  0
   -2.0685    1.5827    0.0000 C   0  0  0  0  0  0  0  0  0  0  0  0
   -2.9345    1.0827    0.0000 C   0  0  0  0  0  0  0  0  0  0  0  0
   -3.8005    1.5827    0.0000 C   0  0  0  0  0  0  0  0  0  0  0  0
   -3.8005    2.5827    0.0000 C   0  0  0  0  0  0  0  0  0  0  0  0
   -2.9345    3.0827    0.0000 C   0  0  0  0  0  0  0  0  0  0  0  0
   -2.0685    2.5827    0.0000 C   0  0  0  0  0  0  0  0  0  0  0  0
   -0.2079    0.9781    0.0000 C   0  0  0  0  0  0  0  0  0  0  0  0
    0.5352    1.6473    0.0000 C   0  0  0  0  0  0  0  0  0  0  0  0
    1.4863    1.3383    0.0000 C   0  0  0  0  0  0  0  0  0  0  0  0
    2.2294    2.0074    0.0000 O   0  0  0  0  0  0  0  0  0  0  0  0
    2.0215    2.9855    0.0000 C   0  0  0  0  0  0  0  0  0  0  0  0
    1.6942    0.3601    0.0000 C   0  0  0  0  0  0  0  0  0  0  0  0
    0.9511   -0.3090    0.0000 C   0  0  0  0  0  0  0  0  0  0  0  0
    0.0000    0.0000    0.0000 C   0  0  0  0  0  0  0  0  0  0  0  0
  1  2  1  0  0  0  0
  2  3  1  0  0  0  0
  3 22  1  0  0  0  0
  3  4  2  0  0  0  0
  4  5  1  0  0  0  0
  4  7  1  0  0  0  0
  5  6  1  0  0  0  0
  7  8  2  0  0  0  0
  7  9  1  0  0  0  0
  7 15  1  0  0  0  0
  9 14  2  0  0  0  0
  9 10  1  0  0  0  0
 10 11  2  0  0  0  0
 11 12  1  0  0  0  0
 12 13  2  0  0  0  0
 13 14  1  0  0  0  0
 15 22  2  0  0  0  0
 15 16  1  0  0  0  0
 16 17  2  0  0  0  0
 17 18  1  0  0  0  0
 17 20  1  0  0  0  0
 18 19  1  0  0  0  0
 20 21  2  0  0  0  0
 21 22  1  0  0  0  0
M  END
> <NMREDATA_VERSION>
1.1

> <NMREDATA_LEVEL>
0

> <NMREDATA_SOLVENT>
CDCl3

> <NMREDATA_FORMULA>
C19H21O2P

> <NMREDATA_SMILES>
COc1ccc2c(c1)P(=O)(c1ccccc1)C(=C2CC)CC

> <NMREDATA_ASSIGNMENT>
P7, 39.40, 7

> <NMREDATA_1D_31P>
Larmor=162
39.40, L=P7

$$$$
