
 OpenBabel06112616462D

 33 34  0  0  1  0  0  0  0  0999 V2000
    2.4641    2.0000    0.0000 N   0  3  0  0  0  0  0  0  0  0  0  0
    1.5981    1.5000    0.0000 C   0  0  0  0  0  0  0  0  0  0  0  0
    0.7321    2.0000    0.0000 C   0  0  0  0  0  0  0  0  0  0  0  0
   -0.1340    1.5000    0.0000 C   0  0  0  0  0  0  0  0  0  0  0  0
   -0.1340    0.5000    0.0000 C   0  0  0  0  0  0  0  0  0  0  0  0
   -1.0000    0.0000    0.0000 O   0  0  0  0  0  0  0  0  0  0  0  0
   -1.0000   -1.0000    0.0000 C   0  0  3  0  0  0  0  0  0  0  0  0
    0.0000   -1.0000    0.0000 P   0  0  0  0  0  0  0  0  0  0  0  0
    0.0000   -2.0000    0.0000 O   0  0  0  0  0  0  0  0  0  0  0  0
    0.8660   -2.5000    0.0000 C   0  0  0  0  0  0  0  0  0  0  0  0
    0.8660   -3.5000    0.0000 C   0  0  0  0  0  0  0  0  0  0  0  0
    1.0000   -1.0000    0.0000 O   0  0  0  0  0  0  0  0  0  0  0  0
    1.5000   -1.8660    0.0000 C   0  0  0  0  0  0  0  0  0  0  0  0
    2.5000   -1.8660    0.0000 C   0  0  0  0  0  0  0  0  0  0  0  0
    0.0000    0.0000    0.0000 O   0  0  0  0  0  0  0  0  0  0  0  0
   -1.0000   -2.0000    0.0000 C   0  0  0  0  0  0  0  0  0  0  0  0
   -0.1340   -2.5000    0.0000 N   0  0  0  0  0  0  0  0  0  0  0  0
   -0.1340   -3.5000    0.0000 C   0  0  0  0  0  0  0  0  0  0  0  0
   -0.6340   -4.3660    0.0000 C   0  0  0  0  0  0  0  0  0  0  0  0
   -1.1340   -3.5000    0.0000 C   0  0  0  0  0  0  0  0  0  0  0  0
    0.7321   -4.0000    0.0000 C   0  0  0  0  0  0  0  0  0  0  0  0
   -1.8660   -2.5000    0.0000 O   0  0  0  0  0  0  0  0  0  0  0  0
   -2.0000   -1.0000    0.0000 C   0  0  0  0  0  0  0  0  0  0  0  0
   -2.5000   -0.1340    0.0000 C   0  0  0  0  0  0  0  0  0  0  0  0
   -3.5000   -0.1340    0.0000 C   0  0  0  0  0  0  0  0  0  0  0  0
   -4.0000   -1.0000    0.0000 C   0  0  0  0  0  0  0  0  0  0  0  0
   -5.0000   -1.0000    0.0000 C   0  0  0  0  0  0  0  0  0  0  0  0
   -3.5000   -1.8660    0.0000 C   0  0  0  0  0  0  0  0  0  0  0  0
   -2.5000   -1.8660    0.0000 C   0  0  0  0  0  0  0  0  0  0  0  0
    0.7321    0.0000    0.0000 C   0  0  0  0  0  0  0  0  0  0  0  0
    1.5981    0.5000    0.0000 C   0  0  0  0  0  0  0  0  0  0  0  0
    3.3301    1.5000    0.0000 O   0  0  0  0  0  0  0  0  0  0  0  0
    2.4641    3.0000    0.0000 O   0  5  0  0  0  0  0  0  0  0  0  0
  1  2  1  0  0  0  0
  1 32  2  0  0  0  0
  1 33  1  0  0  0  0
  2 31  2  0  0  0  0
  2  3  1  0  0  0  0
  3  4  2  0  0  0  0
  4  5  1  0  0  0  0
  5  6  1  0  0  0  0
  5 30  2  0  0  0  0
  6  7  1  0  0  0  0
  7  8  1  0  0  0  0
  7 16  1  0  0  0  0
  7 23  1  0  0  0  0
  8  9  1  0  0  0  0
  8 12  1  0  0  0  0
  8 15  2  0  0  0  0
  9 10  1  0  0  0  0
 10 11  1  0  0  0  0
 12 13  1  0  0  0  0
 13 14  1  0  0  0  0
 16 17  1  0  0  0  0
 16 22  2  0  0  0  0
 17 18  1  0  0  0  0
 18 19  1  0  0  0  0
 18 20  1  0  0  0  0
 18 21  1  0  0  0  0
 23 29  2  0  0  0  0
 23 24  1  0  0  0  0
 24 25  2  0  0  0  0
 25 26  1  0  0  0  0
 26 27  1  0  0  0  0
 26 28  2  0  0  0  0
 28 29  1  0  0  0  0
 30 31  1  0  0  0  0
M  END
> <NMREDATA_VERSION>
1.1

> <NMREDATA_LEVEL>
0

> <NMREDATA_SOLVENT>
CDCl3

> <NMREDATA_FORMULA>
C23H31N2O7P

> <NMREDATA_SMILES>
CCOP(=O)(C(c1ccc(cc1)C)(C(=O)NC(C)(C)C)Oc1ccc(cc1)[N+](=O)[O-])OCC

> <NMREDATA_ASSIGNMENT>
P8, 15.10, 8

> <NMREDATA_1D_31P>
Larmor=162
15.10, L=P8

$$$$
