
 OpenBabel06112616432D

 28 31  0  0  0  0  0  0  0  0999 V2000
    1.1865    1.1865    0.0000 O   0  0  0  0  0  0  0  0  0  0  0  0
    0.9357    0.2507    0.0000 C   0  0  0  0  0  0  0  0  0  0  0  0
    1.6208   -0.4343    0.0000 C   0  0  0  0  0  0  0  0  0  0  0  0
    1.3700   -1.3700    0.0000 C   0  0  0  0  0  0  0  0  0  0  0  0
    0.4343   -1.6208    0.0000 C   0  0  0  0  0  0  0  0  0  0  0  0
    0.1835   -2.5565    0.0000 O   0  0  0  0  0  0  0  0  0  0  0  0
   -0.2507   -0.9357    0.0000 C   0  0  0  0  0  0  0  0  0  0  0  0
   -2.1222   -1.4372    0.0000 P   0  0  1  0  0  0  0  0  0  0  0  0
   -2.2487   -2.3977    0.0000 O   0  0  0  0  0  0  0  0  0  0  0  0
   -2.9612   -1.9216    0.0000 C   0  0  0  0  0  0  0  0  0  0  0  0
   -3.8001   -1.4372    0.0000 C   0  0  0  0  0  0  0  0  0  0  0  0
   -4.6391   -1.9216    0.0000 C   0  0  0  0  0  0  0  0  0  0  0  0
   -4.6391   -2.8903    0.0000 C   0  0  0  0  0  0  0  0  0  0  0  0
   -5.4781   -3.3747    0.0000 C   0  0  0  0  0  0  0  0  0  0  0  0
   -6.3170   -2.8903    0.0000 C   0  0  0  0  0  0  0  0  0  0  0  0
   -6.3170   -1.9216    0.0000 C   0  0  0  0  0  0  0  0  0  0  0  0
   -5.4781   -1.4372    0.0000 C   0  0  0  0  0  0  0  0  0  0  0  0
   -3.8001   -0.4685    0.0000 O   0  0  0  0  0  0  0  0  0  0  0  0
   -2.9612    0.0159    0.0000 C   0  0  0  0  0  0  0  0  0  0  0  0
   -2.9612    0.9847    0.0000 C   0  0  0  0  0  0  0  0  0  0  0  0
   -2.1222    1.4690    0.0000 C   0  0  0  0  0  0  0  0  0  0  0  0
   -1.2833    0.9847    0.0000 C   0  0  0  0  0  0  0  0  0  0  0  0
   -0.4443    1.4690    0.0000 O   0  0  0  0  0  0  0  0  0  0  0  0
   -0.4443    2.4378    0.0000 C   0  0  0  0  0  0  0  0  0  0  0  0
   -1.2833    0.0159    0.0000 C   0  0  0  0  0  0  0  0  0  0  0  0
   -2.1222   -0.4685    0.0000 C   0  0  0  0  0  0  0  0  0  0  0  0
    0.0000    0.0000    0.0000 C   0  0  0  0  0  0  0  0  0  0  0  0
    2.1222    1.4372    0.0000 C   0  0  0  0  0  0  0  0  0  0  0  0
  1  2  1  0  0  0  0
  1 28  1  0  0  0  0
  2 27  2  0  0  0  0
  2  3  1  0  0  0  0
  3  4  2  0  0  0  0
  4  5  1  0  0  0  0
  5  6  1  0  0  0  0
  5  7  2  0  0  0  0
  7  8  1  0  0  0  0
  7 27  1  0  0  0  0
  8 26  1  0  0  0  0
  8  9  2  6  0  0  0
  8 10  1  0  0  0  0
 10 11  2  0  0  0  0
 11 12  1  0  0  0  0
 11 18  1  0  0  0  0
 12 17  2  0  0  0  0
 12 13  1  0  0  0  0
 13 14  2  0  0  0  0
 14 15  1  0  0  0  0
 15 16  2  0  0  0  0
 16 17  1  0  0  0  0
 18 19  1  0  0  0  0
 19 26  2  0  0  0  0
 19 20  1  0  0  0  0
 20 21  2  0  0  0  0
 21 22  1  0  0  0  0
 22 23  1  0  0  0  0
 22 25  2  0  0  0  0
 23 24  1  0  0  0  0
 25 26  1  0  0  0  0
M  END
> <NMREDATA_VERSION>
1.1

> <NMREDATA_LEVEL>
0

> <NMREDATA_SOLVENT>
CDCl3

> <NMREDATA_FORMULA>
C22H19O5P

> <NMREDATA_SMILES>
COc1ccc2c(c1)[P@](=O)(C=C(O2)c1ccccc1)c1cc(OC)ccc1O

> <NMREDATA_ASSIGNMENT>
P8, 12.33, 8

> <NMREDATA_1D_31P>
Larmor=162
12.33, L=P8

$$$$
