
 OpenBabel06112616492D

 23 24  0  0  1  0  0  0  0  0999 V2000
   -1.0000    0.7321    0.0000 C   0  0  0  0  0  0  0  0  0  0  0  0
   -1.5000   -0.1340    0.0000 C   0  0  0  0  0  0  0  0  0  0  0  0
   -1.0000   -1.0000    0.0000 O   0  0  0  0  0  0  0  0  0  0  0  0
    0.0000   -1.0000    0.0000 P   0  0  0  0  0  0  0  0  0  0  0  0
    0.0000   -2.0000    0.0000 O   0  0  0  0  0  0  0  0  0  0  0  0
    1.0000   -1.0000    0.0000 C   0  0  0  0  0  0  0  0  0  0  0  0
    1.5000   -1.8660    0.0000 C   0  0  3  0  0  0  0  0  0  0  0  0
    0.6340   -2.3660    0.0000 O   0  0  0  0  0  0  0  0  0  0  0  0
    2.0000   -2.7321    0.0000 C   0  0  0  0  0  0  0  0  0  0  0  0
    3.0000   -2.7321    0.0000 C   0  0  0  0  0  0  0  0  0  0  0  0
    3.5000   -3.5981    0.0000 C   0  0  0  0  0  0  0  0  0  0  0  0
    3.0000   -4.4641    0.0000 C   0  0  0  0  0  0  0  0  0  0  0  0
    2.0000   -4.4641    0.0000 C   0  0  0  0  0  0  0  0  0  0  0  0
    1.5000   -3.5981    0.0000 C   0  0  0  0  0  0  0  0  0  0  0  0
    2.3660   -1.3660    0.0000 C   0  0  0  0  0  0  0  0  0  0  0  0
    2.3660   -0.3660    0.0000 C   0  0  0  0  0  0  0  0  0  0  0  0
    3.2321    0.1340    0.0000 C   0  0  0  0  0  0  0  0  0  0  0  0
    4.0981   -0.3660    0.0000 N   0  0  0  0  0  0  0  0  0  0  0  0
    4.0981   -1.3660    0.0000 C   0  0  0  0  0  0  0  0  0  0  0  0
    3.2321   -1.8660    0.0000 C   0  0  0  0  0  0  0  0  0  0  0  0
    0.0000    0.0000    0.0000 O   0  0  0  0  0  0  0  0  0  0  0  0
    0.8660    0.5000    0.0000 C   0  0  0  0  0  0  0  0  0  0  0  0
    1.7321    0.0000    0.0000 C   0  0  0  0  0  0  0  0  0  0  0  0
  1  2  1  0  0  0  0
  2  3  1  0  0  0  0
  3  4  1  0  0  0  0
  4  5  2  0  0  0  0
  4  6  1  0  0  0  0
  4 21  1  0  0  0  0
  6  7  1  0  0  0  0
  7  8  1  0  0  0  0
  7  9  1  0  0  0  0
  7 15  1  0  0  0  0
  9 14  2  0  0  0  0
  9 10  1  0  0  0  0
 10 11  2  0  0  0  0
 11 12  1  0  0  0  0
 12 13  2  0  0  0  0
 13 14  1  0  0  0  0
 15 20  2  0  0  0  0
 15 16  1  0  0  0  0
 16 17  2  0  0  0  0
 17 18  1  0  0  0  0
 18 19  2  0  0  0  0
 19 20  1  0  0  0  0
 21 22  1  0  0  0  0
 22 23  1  0  0  0  0
M  END
> <NMREDATA_VERSION>
1.1

> <NMREDATA_LEVEL>
0

> <NMREDATA_SOLVENT>
CDCl3

> <NMREDATA_FORMULA>
C17H22NO4P

> <NMREDATA_SMILES>
CCOP(=O)(CC(c1ccncc1)(c1ccccc1)O)OCC

> <NMREDATA_ASSIGNMENT>
P4, 28.00, 4

> <NMREDATA_1D_31P>
Larmor=162
28.00, L=P4

$$$$
