
 OpenBabel06112616462D

 49 52  0  0  1  0  0  0  0  0999 V2000
   -3.4417    3.8566    0.0000 O   0  0  0  0  0  0  0  0  0  0  0  0
   -3.0349    2.9431    0.0000 C   0  0  0  0  0  0  0  0  0  0  0  0
   -2.0404    2.8385    0.0000 C   0  0  0  0  0  0  0  0  0  0  0  0
   -1.6337    1.9250    0.0000 C   0  0  0  0  0  0  0  0  0  0  0  0
   -2.2215    1.1160    0.0000 N   0  0  0  0  0  0  0  0  0  0  0  0
   -1.8147    0.2024    0.0000 C   0  0  1  0  0  0  0  0  0  0  0  0
   -0.8366   -0.0055    0.0000 O   0  0  0  0  0  0  0  0  0  0  0  0
   -0.7321   -1.0000    0.0000 C   0  0  2  0  0  0  0  0  0  0  0  0
    0.1340   -1.5000    0.0000 C   0  0  0  0  0  0  0  0  0  0  0  0
    1.0000   -1.0000    0.0000 O   0  0  0  0  0  0  0  0  0  0  0  0
    1.0000    0.0000    0.0000 P   0  0  0  0  0  0  0  0  0  0  0  0
    2.0000    0.0000    0.0000 O   0  0  0  0  0  0  0  0  0  0  0  0
    1.0000    1.0000    0.0000 O   0  0  0  0  0  0  0  0  0  0  0  0
    1.8660    1.5000    0.0000 C   0  0  0  0  0  0  0  0  0  0  0  0
    2.7321    1.0000    0.0000 C   0  0  0  0  0  0  0  0  0  0  0  0
    2.7321    0.0000    0.0000 C   0  0  0  0  0  0  0  0  0  0  0  0
    3.5981   -0.5000    0.0000 C   0  0  0  0  0  0  0  0  0  0  0  0
    4.4641    0.0000    0.0000 C   0  0  0  0  0  0  0  0  0  0  0  0
    4.4641    1.0000    0.0000 C   0  0  0  0  0  0  0  0  0  0  0  0
    3.5981    1.5000    0.0000 C   0  0  0  0  0  0  0  0  0  0  0  0
    0.0000    0.0000    0.0000 O   0  0  0  0  0  0  0  0  0  0  0  0
   -0.5000    0.8660    0.0000 C   0  0  0  0  0  0  0  0  0  0  0  0
    0.0000    1.7321    0.0000 C   0  0  0  0  0  0  0  0  0  0  0  0
   -0.5000    2.5981    0.0000 C   0  0  0  0  0  0  0  0  0  0  0  0
    0.0000    3.4641    0.0000 C   0  0  0  0  0  0  0  0  0  0  0  0
    1.0000    3.4641    0.0000 C   0  0  0  0  0  0  0  0  0  0  0  0
    1.5000    2.5981    0.0000 C   0  0  0  0  0  0  0  0  0  0  0  0
    1.0000    1.7321    0.0000 C   0  0  0  0  0  0  0  0  0  0  0  0
   -1.6456   -1.4067    0.0000 C   0  0  1  0  0  0  0  0  0  0  0  0
   -1.8535   -2.3849    0.0000 O   0  0  0  0  0  0  0  0  0  0  0  0
   -1.1104   -3.0540    0.0000 C   0  0  0  0  0  0  0  0  0  0  0  0
   -1.3183   -4.0322    0.0000 O   0  0  0  0  0  0  0  0  0  0  0  0
   -0.1593   -2.7450    0.0000 C   0  0  0  0  0  0  0  0  0  0  0  0
    0.5838   -3.4141    0.0000 C   0  0  0  0  0  0  0  0  0  0  0  0
    1.5349   -3.1051    0.0000 C   0  0  0  0  0  0  0  0  0  0  0  0
    2.2780   -3.7742    0.0000 C   0  0  0  0  0  0  0  0  0  0  0  0
    1.7428   -2.1270    0.0000 O   0  0  0  0  0  0  0  0  0  0  0  0
   -2.3147   -0.6636    0.0000 C   0  0  2  0  0  0  0  0  0  0  0  0
   -3.3092   -0.7681    0.0000 O   0  0  0  0  0  0  0  0  0  0  0  0
   -3.7160   -1.6817    0.0000 C   0  0  0  0  0  0  0  0  0  0  0  0
   -4.7105   -1.7862    0.0000 O   0  0  0  0  0  0  0  0  0  0  0  0
   -3.1282   -2.4907    0.0000 C   0  0  0  0  0  0  0  0  0  0  0  0
   -3.5349   -3.4042    0.0000 C   0  0  0  0  0  0  0  0  0  0  0  0
   -4.5295   -3.5088    0.0000 C   0  0  0  0  0  0  0  0  0  0  0  0
   -5.1172   -2.6997    0.0000 C   0  0  0  0  0  0  0  0  0  0  0  0
   -4.9362   -4.4223    0.0000 O   0  0  0  0  0  0  0  0  0  0  0  0
   -3.2160    1.2205    0.0000 C   0  0  0  0  0  0  0  0  0  0  0  0
   -3.8038    0.4115    0.0000 O   0  0  0  0  0  0  0  0  0  0  0  0
   -3.6227    2.1341    0.0000 N   0  0  0  0  0  0  0  0  0  0  0  0
  1  2  2  0  0  0  0
  2 49  1  0  0  0  0
  2  3  1  0  0  0  0
  3  4  2  0  0  0  0
  4  5  1  0  0  0  0
  5 47  1  0  0  0  0
  6  5  1  1  0  0  0
  6  7  1  0  0  0  0
  6 38  1  0  0  0  0
  7  8  1  0  0  0  0
  8  9  1  6  0  0  0
  8 29  1  0  0  0  0
  9 10  1  0  0  0  0
 10 11  1  0  0  0  0
 11 12  2  0  0  0  0
 11 13  1  0  0  0  0
 11 21  1  0  0  0  0
 13 14  1  0  0  0  0
 14 15  1  0  0  0  0
 15 20  2  0  0  0  0
 15 16  1  0  0  0  0
 16 17  2  0  0  0  0
 17 18  1  0  0  0  0
 18 19  2  0  0  0  0
 19 20  1  0  0  0  0
 21 22  1  0  0  0  0
 22 23  1  0  0  0  0
 23 28  2  0  0  0  0
 23 24  1  0  0  0  0
 24 25  2  0  0  0  0
 25 26  1  0  0  0  0
 26 27  2  0  0  0  0
 27 28  1  0  0  0  0
 29 30  1  1  0  0  0
 29 38  1  0  0  0  0
 30 31  1  0  0  0  0
 31 32  2  0  0  0  0
 31 33  1  0  0  0  0
 33 34  1  0  0  0  0
 34 35  1  0  0  0  0
 35 36  1  0  0  0  0
 35 37  2  0  0  0  0
 38 39  1  6  0  0  0
 39 40  1  0  0  0  0
 40 41  2  0  0  0  0
 40 42  1  0  0  0  0
 42 43  1  0  0  0  0
 43 44  1  0  0  0  0
 44 45  1  0  0  0  0
 44 46  2  0  0  0  0
 47 48  2  0  0  0  0
 47 49  1  0  0  0  0
M  END
> <NMREDATA_VERSION>
1.1

> <NMREDATA_LEVEL>
0

> <NMREDATA_SOLVENT>
CDCl3

> <NMREDATA_FORMULA>
C33H37N2O13P

> <NMREDATA_SMILES>
CC(=O)CCC(=O)O[C@@H]1[C@@H](COP(=O)(OCc2ccccc2)OCc2ccccc2)O[C@@H]([C@H]1OC(=O)CCC(=O)C)n1ccc(=O)[nH]c1=O

> <NMREDATA_ASSIGNMENT>
P11, -0.86, 11

> <NMREDATA_1D_31P>
Larmor=202
-0.86, L=P11

$$$$
