
 OpenBabel06112616452D

 30 33  0  0  0  0  0  0  0  0999 V2000
    2.5217   -2.4265    0.0000 C   0  0  0  0  0  0  0  0  0  0  0  0
    1.6811   -2.9118    0.0000 C   0  0  0  0  0  0  0  0  0  0  0  0
    1.6811   -3.8824    0.0000 C   0  0  0  0  0  0  0  0  0  0  0  0
    0.0000   -1.9412    0.0000 C   0  0  0  0  0  0  0  0  0  0  0  0
    0.0000   -0.9706    0.0000 P   0  0  3  0  0  0  0  0  0  0  0  0
    0.9706   -0.9706    0.0000 C   0  0  0  0  0  0  0  0  0  0  0  0
    1.4559   -0.1300    0.0000 C   0  0  0  0  0  0  0  0  0  0  0  0
    2.4265   -0.1300    0.0000 C   0  0  0  0  0  0  0  0  0  0  0  0
    2.9118   -0.9706    0.0000 C   0  0  0  0  0  0  0  0  0  0  0  0
    2.4265   -1.8111    0.0000 C   0  0  0  0  0  0  0  0  0  0  0  0
    1.4559   -1.8111    0.0000 C   0  0  0  0  0  0  0  0  0  0  0  0
   -0.9706   -0.9706    0.0000 C   0  0  0  0  0  0  0  0  0  0  0  0
   -1.5411   -1.7558    0.0000 C   0  0  0  0  0  0  0  0  0  0  0  0
   -1.2412   -2.6789    0.0000 C   0  0  0  0  0  0  0  0  0  0  0  0
   -1.8906   -3.4002    0.0000 C   0  0  0  0  0  0  0  0  0  0  0  0
   -1.5907   -4.3233    0.0000 C   0  0  0  0  0  0  0  0  0  0  0  0
   -2.2401   -5.0446    0.0000 C   0  0  0  0  0  0  0  0  0  0  0  0
   -3.1895   -4.8428    0.0000 C   0  0  0  0  0  0  0  0  0  0  0  0
   -3.4894   -3.9197    0.0000 C   0  0  0  0  0  0  0  0  0  0  0  0
   -2.8400   -3.1984    0.0000 C   0  0  0  0  0  0  0  0  0  0  0  0
   -0.2918   -2.8807    0.0000 C   0  0  0  0  0  0  0  0  0  0  0  0
    0.0081   -3.8038    0.0000 F   0  0  0  0  0  0  0  0  0  0  0  0
   -2.4642   -1.4559    0.0000 C   0  0  0  0  0  0  0  0  0  0  0  0
   -2.4642   -0.4853    0.0000 C   0  0  0  0  0  0  0  0  0  0  0  0
   -1.5411   -0.1854    0.0000 N   0  0  0  0  0  0  0  0  0  0  0  0
   -3.3047    0.0000    0.0000 C   0  0  0  0  0  0  0  0  0  0  0  0
   -4.1453   -0.4853    0.0000 C   0  0  0  0  0  0  0  0  0  0  0  0
   -4.1453   -1.4559    0.0000 C   0  0  0  0  0  0  0  0  0  0  0  0
   -3.3047   -1.9412    0.0000 C   0  0  0  0  0  0  0  0  0  0  0  0
    0.0000    0.0000    0.0000 O   0  0  0  0  0  0  0  0  0  0  0  0
  1  2  1  0  0  0  0
  2  3  1  0  0  0  0
  2  4  1  0  0  0  0
  4  5  1  0  0  0  0
  5  6  1  0  0  0  0
  5 12  1  0  0  0  0
  5 30  2  0  0  0  0
  6 11  2  0  0  0  0
  6  7  1  0  0  0  0
  7  8  2  0  0  0  0
  8  9  1  0  0  0  0
  9 10  2  0  0  0  0
 10 11  1  0  0  0  0
 12 25  1  0  0  0  0
 12 13  2  0  0  0  0
 13 14  1  0  0  0  0
 13 23  1  0  0  0  0
 14 15  1  0  0  0  0
 14 21  2  3  0  0  0
 15 20  2  0  0  0  0
 15 16  1  0  0  0  0
 16 17  2  0  0  0  0
 17 18  1  0  0  0  0
 18 19  2  0  0  0  0
 19 20  1  0  0  0  0
 21 22  1  0  0  0  0
 23 29  2  0  0  0  0
 23 24  1  0  0  0  0
 24 25  1  0  0  0  0
 24 26  2  0  0  0  0
 26 27  1  0  0  0  0
 27 28  2  0  0  0  0
 28 29  1  0  0  0  0
M  END
> <NMREDATA_VERSION>
1.1

> <NMREDATA_LEVEL>
0

> <NMREDATA_SOLVENT>
CDCl3

> <NMREDATA_FORMULA>
C26H25FNOP

> <NMREDATA_SMILES>
FC=C(c1c2ccccc2[nH]c1P(=O)(c1ccccc1)CC(C)C)c1ccccc1

> <NMREDATA_ASSIGNMENT>
P5, 26.90, 5

> <NMREDATA_1D_31P>
Larmor=243
26.90, L=P5

$$$$
