
 OpenBabel06112616482D

 15 16  0  0  0  0  0  0  0  0999 V2000
    1.0000   -1.0000    0.0000 C   0  0  0  0  0  0  0  0  0  0  0  0
    1.0000    0.0000    0.0000 P   0  0  0  0  0  0  0  0  0  0  0  0
    2.0000    0.0000    0.0000 O   0  0  0  0  0  0  0  0  0  0  0  0
    1.0000    1.0000    0.0000 N   0  0  0  0  0  0  0  0  0  0  0  0
    0.1910    1.5878    0.0000 C   0  0  0  0  0  0  0  0  0  0  0  0
    0.5000    2.5388    0.0000 C   0  0  0  0  0  0  0  0  0  0  0  0
    1.5000    2.5388    0.0000 S   0  0  0  0  0  0  0  0  0  0  0  0
    1.8090    1.5878    0.0000 C   0  0  0  0  0  0  0  0  0  0  0  0
    2.7601    1.2788    0.0000 O   0  0  0  0  0  0  0  0  0  0  0  0
    0.0000    0.0000    0.0000 N   0  0  0  0  0  0  0  0  0  0  0  0
   -0.5878   -0.8090    0.0000 C   0  0  0  0  0  0  0  0  0  0  0  0
   -1.5388   -0.5000    0.0000 C   0  0  0  0  0  0  0  0  0  0  0  0
   -1.5388    0.5000    0.0000 S   0  0  0  0  0  0  0  0  0  0  0  0
   -0.5878    0.8090    0.0000 C   0  0  0  0  0  0  0  0  0  0  0  0
   -0.2788    1.7601    0.0000 O   0  0  0  0  0  0  0  0  0  0  0  0
  1  2  1  0  0  0  0
  2  3  2  0  0  0  0
  2  4  1  0  0  0  0
  2 10  1  0  0  0  0
  4  8  1  0  0  0  0
  4  5  1  0  0  0  0
  5  6  1  0  0  0  0
  6  7  1  0  0  0  0
  7  8  1  0  0  0  0
  8  9  2  0  0  0  0
 10 14  1  0  0  0  0
 10 11  1  0  0  0  0
 11 12  1  0  0  0  0
 12 13  1  0  0  0  0
 13 14  1  0  0  0  0
 14 15  2  0  0  0  0
M  END
> <NMREDATA_VERSION>
1.1

> <NMREDATA_LEVEL>
0

> <NMREDATA_SOLVENT>
CDCl3

> <NMREDATA_FORMULA>
C7H11N2O3PS2

> <NMREDATA_SMILES>
O=C1SCCN1P(=O)(N1CCSC1=O)C

> <NMREDATA_ASSIGNMENT>
P2, 21.34, 2

> <NMREDATA_1D_31P>
Larmor=162
21.34, L=P2

$$$$
