
 OpenBabel06112616492D

 38 41  0  0  1  0  0  0  0  0999 V2000
    1.0000   -1.0000    0.0000 O    0  0  0  0  0  0  0  0  0  0  0  0
    0.1340   -1.5000    0.0000 C    0  0  0  0  0  0  0  0  0  0  0  0
   -0.7321   -1.0000    0.0000 C    0  0  1  0  0  0  0  0  0  0  0  0
   -1.6456   -1.4067    0.0000 O    0  0  0  0  0  0  0  0  0  0  0  0
   -2.3147   -0.6636    0.0000 C    0  0  1  0  0  0  0  0  0  0  0  0
   -3.3092   -0.7681    0.0000 N    0  0  0  0  0  0  0  0  0  0  0  0
   -3.7160   -1.6817    0.0000 C    0  0  0  0  0  0  0  0  0  0  0  0
   -4.7105   -1.7862    0.0000 C    0  0  0  0  0  0  0  0  0  0  0  0
   -5.1172   -2.6997    0.0000 C    0  0  0  0  0  0  0  0  0  0  0  0
   -5.2983   -0.9772    0.0000 C    0  0  0  0  0  0  0  0  0  0  0  0
   -6.2928   -1.0817    0.0000 O    0  0  0  0  0  0  0  0  0  0  0  0
   -4.8916   -0.0636    0.0000 N    0  0  0  0  0  0  0  0  0  0  0  0
   -3.8970    0.0409    0.0000 C    0  0  0  0  0  0  0  0  0  0  0  0
   -3.4903    0.9544    0.0000 O    0  0  0  0  0  0  0  0  0  0  0  0
   -1.8147    0.2024    0.0000 C    0  0  0  0  0  0  0  0  0  0  0  0
   -0.8366   -0.0055    0.0000 C    0  0  2  0  0  0  0  0  0  0  0  0
   -0.0934    0.6637    0.0000 O    0  0  0  0  0  0  0  0  0  0  0  0
   -0.3013    1.6418    0.0000 P    0  0  3  0  0  0  0  0  0  0  0  0
   -1.3013    1.6326    0.0000 S    0  0  0  0  0  0  0  0  0  0  0  0
   -0.6597    2.5754    0.0000 O    0  0  0  0  0  0  0  0  0  0  0  0
    0.1174    3.2047    0.0000 C    0  0  3  0  0  0  0  0  0  0  0  0
    0.1698    4.2033    0.0000 C    0  0  0  0  0  0  0  0  0  0  0  0
    1.0608    4.6573    0.0000 C    0  0  2  0  0  0  0  0  0  0  0  0
    1.1131    5.6560    0.0000 C    0  0  0  0  0  0  0  0  0  0  0  0
    2.0041    6.1099    0.0000 C    0  0  0  0  0  0  0  0  0  0  0  0
    0.2744    6.2006    0.0000 C    0  0  0  0  0  0  0  0  0  0  0  0
    1.8994    4.1127    0.0000 C    0  0  0  0  0  0  0  0  0  0  0  0
    1.8471    3.1141    0.0000 C    0  0  0  0  0  0  0  0  0  0  0  0
    0.9561    2.6601    0.0000 C    0  0  2  0  0  0  0  0  0  0  0  0
    1.9438    2.5036    0.0000 C    0  0  0  0  0  0  0  0  0  0  0  0
    0.6973    1.6941    0.0000 S    0  0  0  0  0  0  0  0  0  0  0  0
    1.0000    0.0000    0.0000 Si   0  0  0  0  0  0  0  0  0  0  0  0
    2.0000    0.0000    0.0000 C    0  0  0  0  0  0  0  0  0  0  0  0
    2.8660    0.5000    0.0000 C    0  0  0  0  0  0  0  0  0  0  0  0
    2.0000    1.0000    0.0000 C    0  0  0  0  0  0  0  0  0  0  0  0
    2.5000   -0.8660    0.0000 C    0  0  0  0  0  0  0  0  0  0  0  0
    1.0000    1.0000    0.0000 C    0  0  0  0  0  0  0  0  0  0  0  0
    0.0000    0.0000    0.0000 C    0  0  0  0  0  0  0  0  0  0  0  0
  1  2  1  0  0  0  0
  1 32  1  0  0  0  0
  3  2  1  1  0  0  0
  3  4  1  0  0  0  0
  3 16  1  0  0  0  0
  4  5  1  0  0  0  0
  5  6  1  1  0  0  0
  5 15  1  0  0  0  0
  6 13  1  0  0  0  0
  6  7  1  0  0  0  0
  7  8  2  0  0  0  0
  8  9  1  0  0  0  0
  8 10  1  0  0  0  0
 10 11  2  0  0  0  0
 10 12  1  0  0  0  0
 12 13  1  0  0  0  0
 13 14  2  0  0  0  0
 15 16  1  0  0  0  0
 16 17  1  6  0  0  0
 17 18  1  0  0  0  0
 18 31  1  0  0  0  0
 18 19  2  0  0  0  0
 18 20  1  0  0  0  0
 20 21  1  0  0  0  0
 21 29  1  0  0  0  0
 21 22  1  0  0  0  0
 22 23  1  0  0  0  0
 23 24  1  6  0  0  0
 23 27  1  0  0  0  0
 24 25  1  0  0  0  0
 24 26  2  0  0  0  0
 27 28  1  0  0  0  0
 28 29  1  0  0  0  0
 29 30  1  6  0  0  0
 29 31  1  0  0  0  0
 32 33  1  0  0  0  0
 32 37  1  0  0  0  0
 32 38  1  0  0  0  0
 33 34  1  0  0  0  0
 33 35  1  0  0  0  0
 33 36  1  0  0  0  0
M  END
> <NMREDATA_VERSION>
1.1

> <NMREDATA_LEVEL>
0

> <NMREDATA_SOLVENT>
CDCl3

> <NMREDATA_FORMULA>
C26H43N2O6PS2Si

> <NMREDATA_SMILES>
CC(=C)[C@@H]1CC[C@@]2(C(C1)OP(=S)(S2)O[C@H]1C[C@@H](O[C@@H]1CO[Si](C(C)(C)C)(C)C)n1cc(C)c(=O)[nH]c1=O)C

> <NMREDATA_ASSIGNMENT>
P18, 101.18, 18

> <NMREDATA_1D_31P>
Larmor=162
101.18, L=P18

$$$$
