
 OpenBabel06112616492D

 20 22  0  0  0  0  0  0  0  0999 V2000
    0.9986   -0.0523    0.0000 C   0  0  0  0  0  0  0  0  0  0  0  0
    1.5433    0.7863    0.0000 P   0  0  3  0  0  0  0  0  0  0  0  0
    0.8297    1.4869    0.0000 O   0  0  0  0  0  0  0  0  0  0  0  0
    1.9500    1.6999    0.0000 C   0  0  0  0  0  0  0  0  0  0  0  0
    1.4500    2.5659    0.0000 C   0  0  0  0  0  0  0  0  0  0  0  0
    1.9500    3.4319    0.0000 C   0  0  0  0  0  0  0  0  0  0  0  0
    2.9445    1.5954    0.0000 C   0  0  0  0  0  0  0  0  0  0  0  0
    3.6137    2.3385    0.0000 C   0  0  0  0  0  0  0  0  0  0  0  0
    4.5918    2.1306    0.0000 C   0  0  0  0  0  0  0  0  0  0  0  0
    3.1524    0.6172    0.0000 C   0  0  0  0  0  0  0  0  0  0  0  0
    4.0185    0.1172    0.0000 C   0  0  0  0  0  0  0  0  0  0  0  0
    4.0185   -0.8828    0.0000 C   0  0  0  0  0  0  0  0  0  0  0  0
    3.1524   -1.3828    0.0000 C   0  0  0  0  0  0  0  0  0  0  0  0
    2.2864   -0.8828    0.0000 C   0  0  0  0  0  0  0  0  0  0  0  0
    2.2864    0.1172    0.0000 C   0  0  0  0  0  0  0  0  0  0  0  0
    1.4526   -0.9433    0.0000 C   0  0  0  0  0  0  0  0  0  0  0  0
    0.9080   -1.7820    0.0000 C   0  0  0  0  0  0  0  0  0  0  0  0
   -0.0906   -1.7297    0.0000 C   0  0  0  0  0  0  0  0  0  0  0  0
   -0.5446   -0.8387    0.0000 C   0  0  0  0  0  0  0  0  0  0  0  0
    0.0000    0.0000    0.0000 C   0  0  0  0  0  0  0  0  0  0  0  0
  1 20  2  0  0  0  0
  1  2  1  0  0  0  0
  1 16  1  0  0  0  0
  2 15  1  0  0  0  0
  2  3  2  0  0  0  0
  2  4  1  0  0  0  0
  4  5  1  0  0  0  0
  4  7  2  0  0  0  0
  5  6  1  0  0  0  0
  7  8  1  0  0  0  0
  7 10  1  0  0  0  0
  8  9  1  0  0  0  0
 10 15  2  0  0  0  0
 10 11  1  0  0  0  0
 11 12  2  0  0  0  0
 12 13  1  0  0  0  0
 13 14  2  0  0  0  0
 14 15  1  0  0  0  0
 16 17  2  0  0  0  0
 17 18  1  0  0  0  0
 18 19  2  0  0  0  0
 19 20  1  0  0  0  0
M  END
> <NMREDATA_VERSION>
1.1

> <NMREDATA_LEVEL>
0

> <NMREDATA_SOLVENT>
CDCl3

> <NMREDATA_FORMULA>
C18H19OP

> <NMREDATA_SMILES>
CCC1=C(CC)P(=O)(c2c1cccc2)c1ccccc1

> <NMREDATA_ASSIGNMENT>
P2, 41.13, 2

> <NMREDATA_1D_31P>
Larmor=162
41.13, L=P2

$$$$
