
 OpenBabel06112616472D

 34 38  0  0  1  0  0  0  0  0999 V2000
   -0.9268   -0.9268    0.0000 O    0  0  0  0  0  0  0  0  0  0  0  0
    0.0000   -0.9268    0.0000 P    0  0  3  0  0  0  0  0  0  0  0  0
    0.0000   -1.8537    0.0000 C    0  0  1  0  0  0  0  0  0  0  0  0
   -0.1450   -2.7691    0.0000 C    0  0  1  0  0  0  0  0  0  0  0  0
   -3.4482   -4.4522    0.0000 C    0  0  0  0  0  0  0  0  0  0  0  0
   -4.2255   -3.9474    0.0000 C    0  0  0  0  0  0  0  0  0  0  0  0
   -5.0513   -4.3681    0.0000 C    0  0  0  0  0  0  0  0  0  0  0  0
   -5.0999   -5.2937    0.0000 C    0  0  0  0  0  0  0  0  0  0  0  0
   -5.9257   -5.7145    0.0000 Cl   0  0  0  0  0  0  0  0  0  0  0  0
   -4.3225   -5.7985    0.0000 C    0  0  0  0  0  0  0  0  0  0  0  0
   -3.4967   -5.3777    0.0000 C    0  0  0  0  0  0  0  0  0  0  0  0
    0.6808   -3.1898    0.0000 O    0  0  0  0  0  0  0  0  0  0  0  0
    1.3362   -2.5345    0.0000 C    0  0  0  0  0  0  0  0  0  0  0  0
    2.2516   -2.6795    0.0000 S    0  0  0  0  0  0  0  0  0  0  0  0
    0.9154   -1.7087    0.0000 N    0  0  0  0  0  0  0  0  0  0  0  0
   -0.9083   -2.0380    0.0000 C    0  0  0  0  0  0  0  0  0  0  0  0
   -1.5221   -1.3436    0.0000 C    0  0  0  0  0  0  0  0  0  0  0  0
   -2.4304   -1.5280    0.0000 C    0  0  0  0  0  0  0  0  0  0  0  0
   -2.7249   -2.4068    0.0000 C    0  0  0  0  0  0  0  0  0  0  0  0
   -2.1111   -3.1012    0.0000 C    0  0  0  0  0  0  0  0  0  0  0  0
   -1.2028   -2.9169    0.0000 C    0  0  0  0  0  0  0  0  0  0  0  0
    0.9268   -0.9268    0.0000 C    0  0  0  0  0  0  0  0  0  0  0  0
    1.3902   -0.1242    0.0000 C    0  0  0  0  0  0  0  0  0  0  0  0
    2.3171   -0.1242    0.0000 C    0  0  0  0  0  0  0  0  0  0  0  0
    2.7805   -0.9268    0.0000 C    0  0  0  0  0  0  0  0  0  0  0  0
    2.3171   -1.7295    0.0000 C    0  0  0  0  0  0  0  0  0  0  0  0
    1.3902   -1.7295    0.0000 C    0  0  0  0  0  0  0  0  0  0  0  0
    0.0000    0.0000    0.0000 O    0  0  0  0  0  0  0  0  0  0  0  0
   -0.8027    0.4634    0.0000 C    0  0  0  0  0  0  0  0  0  0  0  0
   -0.8027    1.3902    0.0000 C    0  0  0  0  0  0  0  0  0  0  0  0
   -1.6053    1.8537    0.0000 C    0  0  0  0  0  0  0  0  0  0  0  0
   -2.4080    1.3902    0.0000 C    0  0  0  0  0  0  0  0  0  0  0  0
   -2.4080    0.4634    0.0000 C    0  0  0  0  0  0  0  0  0  0  0  0
   -1.6053    0.0000    0.0000 C    0  0  0  0  0  0  0  0  0  0  0  0
  1  2  2  0  0  0  0
  2 22  1  0  0  0  0
  2 28  1  0  0  0  0
  3  2  1  6  0  0  0
  3 15  1  0  0  0  0
  3  4  1  0  0  0  0
  3 16  1  0  0  0  0
  4  5  1  6  0  0  0
  4 12  1  0  0  0  0
  5 11  2  0  0  0  0
  5  6  1  0  0  0  0
  6  7  2  0  0  0  0
  7  8  1  0  0  0  0
  8  9  1  0  0  0  0
  8 10  2  0  0  0  0
 10 11  1  0  0  0  0
 12 13  1  0  0  0  0
 13 14  2  0  0  0  0
 13 15  1  0  0  0  0
 16 21  2  0  0  0  0
 16 17  1  0  0  0  0
 17 18  2  0  0  0  0
 18 19  1  0  0  0  0
 19 20  2  0  0  0  0
 20 21  1  0  0  0  0
 22 27  2  0  0  0  0
 22 23  1  0  0  0  0
 23 24  2  0  0  0  0
 24 25  1  0  0  0  0
 25 26  2  0  0  0  0
 26 27  1  0  0  0  0
 28 29  1  0  0  0  0
 29 34  2  0  0  0  0
 29 30  1  0  0  0  0
 30 31  2  0  0  0  0
 31 32  1  0  0  0  0
 32 33  2  0  0  0  0
 33 34  1  0  0  0  0
M  END
> <NMREDATA_VERSION>
1.1

> <NMREDATA_LEVEL>
0

> <NMREDATA_SOLVENT>
CDCl3

> <NMREDATA_FORMULA>
C27H21ClNO3PS

> <NMREDATA_SMILES>
S=C1O[C@@H]([C@](N1)(c1ccccc1)P(=O)(c1ccccc1)Oc1ccccc1)c1ccc(cc1)Cl

> <NMREDATA_ASSIGNMENT>
P2, 9.80, 2

> <NMREDATA_1D_31P>
Larmor=121
9.80, L=P2

$$$$
