
 OpenBabel06112616452D

 17 16  0  0  0  0  0  0  0  0999 V2000
    3.6340   -5.4641    0.0000 C    0  0  0  0  0  0  0  0  0  0  0  0
    4.5000   -4.9641    0.0000 C    0  0  0  0  0  0  0  0  0  0  0  0
    4.5000   -3.9641    0.0000 P    0  3  0  0  0  0  0  0  0  0  0  0
    5.5000   -3.9641    0.0000 C    0  0  0  0  0  0  0  0  0  0  0  0
    6.0000   -3.0981    0.0000 C    0  0  0  0  0  0  0  0  0  0  0  0
    4.5000   -2.9641    0.0000 C    0  0  0  0  0  0  0  0  0  0  0  0
    5.3660   -2.4641    0.0000 C    0  0  0  0  0  0  0  0  0  0  0  0
    3.5000   -3.9641    0.0000 C    0  0  0  0  0  0  0  0  0  0  0  0
    3.0000   -3.0981    0.0000 C    0  0  0  0  0  0  0  0  0  0  0  0
    2.0000   -3.0981    0.0000 C    0  0  0  0  0  0  0  0  0  0  0  0
    1.5000   -2.2321    0.0000 C    0  0  0  0  0  0  0  0  0  0  0  0
    2.0000   -1.3660    0.0000 C    0  0  0  0  0  0  0  0  0  0  0  0
    1.5000   -0.5000    0.0000 O    0  0  0  0  0  0  0  0  0  0  0  0
    0.5000   -0.5000    0.0000 C    0  0  0  0  0  0  0  0  0  0  0  0
    3.0000   -1.3660    0.0000 C    0  0  0  0  0  0  0  0  0  0  0  0
    3.5000   -2.2321    0.0000 C    0  0  0  0  0  0  0  0  0  0  0  0
    7.0000   -0.5000    0.0000 Br   0  5  0  0  0  0  0  0  0  0  0  0
  1  2  1  0  0  0  0
  2  3  1  0  0  0  0
  3  4  1  0  0  0  0
  3  6  1  0  0  0  0
  3  8  1  0  0  0  0
  4  5  1  0  0  0  0
  6  7  1  0  0  0  0
  8  9  1  0  0  0  0
  9 16  2  0  0  0  0
  9 10  1  0  0  0  0
 10 11  2  0  0  0  0
 11 12  1  0  0  0  0
 12 13  1  0  0  0  0
 12 15  2  0  0  0  0
 13 14  1  0  0  0  0
 15 16  1  0  0  0  0
M  END
> <NMREDATA_VERSION>
1.1

> <NMREDATA_LEVEL>
0

> <NMREDATA_SOLVENT>
CDCl3

> <NMREDATA_FORMULA>
C14H24BrOP

> <NMREDATA_SMILES>
COc1ccc(cc1)CP(CC)(CC)CC.Br

> <NMREDATA_ASSIGNMENT>
P3, 36.30, 3

> <NMREDATA_1D_31P>
Larmor=80
36.30, L=P3

$$$$
