
 OpenBabel06112616492D

 48 54  0  0  1  0  0  0  0  0999 V2000
   -2.4651   -0.1321    0.0000 C   0  0  0  0  0  0  0  0  0  0  0  0
   -1.4790   -0.1321    0.0000 C   0  0  0  0  0  0  0  0  0  0  0  0
   -0.9860   -0.9860    0.0000 N   0  0  0  0  0  0  0  0  0  0  0  0
   -1.4790   -1.8400    0.0000 C   0  0  0  0  0  0  0  0  0  0  0  0
   -0.9860   -2.6939    0.0000 C   0  0  0  0  0  0  0  0  0  0  0  0
    0.0000   -2.6939    0.0000 C   0  0  0  0  0  0  0  0  0  0  0  0
   -1.4790   -3.5478    0.0000 C   0  0  0  0  0  0  0  0  0  0  0  0
   -2.4651   -3.5478    0.0000 C   0  0  0  0  0  0  0  0  0  0  0  0
   -2.9581   -2.6939    0.0000 C   0  0  0  0  0  0  0  0  0  0  0  0
   -2.4651   -1.8400    0.0000 N   0  0  0  0  0  0  0  0  0  0  0  0
    0.0000   -0.9860    0.0000 P   0  0  2  0  0  0  0  0  0  0  0  0
    0.0000   -1.9721    0.0000 O   0  0  0  0  0  0  0  0  0  0  0  0
    0.9860   -0.9860    0.0000 C   0  0  0  0  0  0  0  0  0  0  0  0
    1.4790   -0.1321    0.0000 C   0  0  0  0  0  0  0  0  0  0  0  0
    2.4651   -0.1321    0.0000 C   0  0  0  0  0  0  0  0  0  0  0  0
    2.9581   -0.9860    0.0000 C   0  0  0  0  0  0  0  0  0  0  0  0
    2.4651   -1.8400    0.0000 C   0  0  0  0  0  0  0  0  0  0  0  0
    1.4790   -1.8400    0.0000 C   0  0  0  0  0  0  0  0  0  0  0  0
    0.0000    0.0000    0.0000 C   0  0  0  0  0  0  0  0  0  0  0  0
   -0.9645    0.2050    0.0000 C   0  0  0  0  0  0  0  0  0  0  0  0
   -1.2692    1.1428    0.0000 C   0  0  0  0  0  0  0  0  0  0  0  0
   -0.6094    1.8755    0.0000 C   0  0  0  0  0  0  0  0  0  0  0  0
    0.3551    1.6705    0.0000 C   0  0  0  0  0  0  0  0  0  0  0  0
    0.6598    0.7328    0.0000 C   0  0  0  0  0  0  0  0  0  0  0  0
    1.6243    0.5278    0.0000 C   0  0  0  0  0  0  0  0  0  0  0  0
    2.2841    1.2605    0.0000 C   0  0  0  0  0  0  0  0  0  0  0  0
    3.2485    1.0555    0.0000 C   0  0  0  0  0  0  0  0  0  0  0  0
    3.5532    0.1177    0.0000 O   0  0  0  0  0  0  0  0  0  0  0  0
    3.9083    1.7883    0.0000 O   0  0  0  0  0  0  0  0  0  0  0  0
    4.7623    1.2953    0.0000 C   0  0  0  0  0  0  0  0  0  0  0  0
    4.7621    0.3087    0.0000 C   0  0  0  0  0  0  0  0  0  0  0  0
    5.6158   -0.1846    0.0000 C   0  0  0  0  0  0  0  0  0  0  0  0
    6.4697    0.3085    0.0000 C   0  0  0  0  0  0  0  0  0  0  0  0
    6.4698    1.2950    0.0000 C   0  0  0  0  0  0  0  0  0  0  0  0
    5.6161    1.7884    0.0000 C   0  0  0  0  0  0  0  0  0  0  0  0
    7.3243    1.7882    0.0000 C   0  0  0  0  0  0  0  0  0  0  0  0
    8.1786    1.2948    0.0000 C   0  0  0  0  0  0  0  0  0  0  0  0
    8.1785    0.3083    0.0000 C   0  0  2  0  0  0  0  0  0  0  0  0
    7.3240   -0.1849    0.0000 C   0  0  2  0  0  0  0  0  0  0  0  0
    7.3239   -1.1708    0.0000 C   0  0  0  0  0  0  0  0  0  0  0  0
    8.1782   -1.6642    0.0000 C   0  0  0  0  0  0  0  0  0  0  0  0
    9.0326   -1.1710    0.0000 C   0  0  2  0  0  0  0  0  0  0  0  0
    9.0325   -2.1710    0.0000 C   0  0  0  0  0  0  0  0  0  0  0  0
    9.8870   -1.6644    0.0000 C   0  0  0  0  0  0  0  0  0  0  0  0
    9.8868   -2.6644    0.0000 O   0  0  0  0  0  0  0  0  0  0  0  0
   10.7402   -1.1713    0.0000 C   0  0  0  0  0  0  0  0  0  0  0  0
   10.7404   -0.1854    0.0000 C   0  0  0  0  0  0  0  0  0  0  0  0
    9.0328   -0.1851    0.0000 C   0  0  1  0  0  0  0  0  0  0  0  0
  1  2  1  0  0  0  0
  2  3  1  0  0  0  0
  3  4  1  0  0  0  0
  3 11  1  0  0  0  0
  4 10  2  0  0  0  0
  4  5  1  0  0  0  0
  5  6  1  0  0  0  0
  5  7  2  0  0  0  0
  7  8  1  0  0  0  0
  8  9  2  0  0  0  0
  9 10  1  0  0  0  0
 11 12  2  6  0  0  0
 11 13  1  0  0  0  0
 11 19  1  0  0  0  0
 13 18  2  0  0  0  0
 13 14  1  0  0  0  0
 14 15  2  0  0  0  0
 15 16  1  0  0  0  0
 16 17  2  0  0  0  0
 17 18  1  0  0  0  0
 19 24  2  0  0  0  0
 19 20  1  0  0  0  0
 20 21  2  0  0  0  0
 21 22  1  0  0  0  0
 22 23  2  0  0  0  0
 23 24  1  0  0  0  0
 24 25  1  0  0  0  0
 25 26  2  0  0  0  0
 26 27  1  0  0  0  0
 27 28  2  0  0  0  0
 27 29  1  0  0  0  0
 29 30  1  0  0  0  0
 30 35  2  0  0  0  0
 30 31  1  0  0  0  0
 31 32  2  0  0  0  0
 32 33  1  0  0  0  0
 33 39  1  0  0  0  0
 33 34  2  0  0  0  0
 34 35  1  0  0  0  0
 34 36  1  0  0  0  0
 36 37  1  0  0  0  0
 38 37  1  1  0  0  0
 38 39  1  0  0  0  0
 38 48  1  0  0  0  0
 39 40  1  6  0  0  0
 40 41  1  0  0  0  0
 41 42  1  0  0  0  0
 42 48  1  0  0  0  0
 42 43  1  6  0  0  0
 42 44  1  0  0  0  0
 44 45  2  0  0  0  0
 44 46  1  0  0  0  0
 46 47  1  0  0  0  0
 48 47  1  6  0  0  0
M  END
> <NMREDATA_VERSION>
1.1

> <NMREDATA_LEVEL>
0

> <NMREDATA_SOLVENT>
CDCl3

> <NMREDATA_FORMULA>
C41H43N2O4P

> <NMREDATA_SMILES>
CCN([P@@](=O)(c1ccccc1/C=C/C(=O)Oc1ccc2c(c1)CC[C@@H]1[C@@H]2CC[C@]2([C@H]1CCC2=O)C)c1ccccc1)c1ncccc1C

> <NMREDATA_ASSIGNMENT>
P11, 27.64, 11

> <NMREDATA_1D_31P>
Larmor=162
27.64, L=P11

$$$$
