
 OpenBabel06112616452D

 27 31  0  0  0  0  0  0  0  0999 V2000
   -0.8390   -1.4531    0.0000 C   0  0  0  0  0  0  0  0  0  0  0  0
   -0.8390   -0.4844    0.0000 C   0  0  0  0  0  0  0  0  0  0  0  0
   -1.6779    0.0000    0.0000 C   0  0  0  0  0  0  0  0  0  0  0  0
   -1.6779    0.9687    0.0000 P   0  3  0  0  0  0  0  0  0  0  0  0
   -2.6467    2.6467    0.0000 C   0  0  0  0  0  0  0  0  0  0  0  0
   -3.6154    2.6467    0.0000 C   0  0  0  0  0  0  0  0  0  0  0  0
   -4.0998    3.4856    0.0000 C   0  0  0  0  0  0  0  0  0  0  0  0
   -3.6154    4.3246    0.0000 C   0  0  0  0  0  0  0  0  0  0  0  0
   -2.6467    4.3246    0.0000 C   0  0  0  0  0  0  0  0  0  0  0  0
   -2.1623    3.4856    0.0000 C   0  0  0  0  0  0  0  0  0  0  0  0
   -2.6467    0.9687    0.0000 C   0  0  0  0  0  0  0  0  0  0  0  0
   -3.1310    0.1298    0.0000 C   0  0  0  0  0  0  0  0  0  0  0  0
   -4.0998    0.1298    0.0000 C   0  0  0  0  0  0  0  0  0  0  0  0
   -4.5842    0.9687    0.0000 C   0  0  0  0  0  0  0  0  0  0  0  0
   -4.0998    1.8077    0.0000 C   0  0  0  0  0  0  0  0  0  0  0  0
   -3.1310    1.8077    0.0000 C   0  0  0  0  0  0  0  0  0  0  0  0
   -0.8390    1.4531    0.0000 C   0  0  0  0  0  0  0  0  0  0  0  0
   -0.8390    2.4219    0.0000 C   0  0  0  0  0  0  0  0  0  0  0  0
    0.0000    2.9062    0.0000 C   0  0  0  0  0  0  0  0  0  0  0  0
    0.8390    2.4219    0.0000 C   0  0  0  0  0  0  0  0  0  0  0  0
    1.6779    2.9063    0.0000 C   0  0  0  0  0  0  0  0  0  0  0  0
    2.5169    2.4219    0.0000 C   0  0  0  0  0  0  0  0  0  0  0  0
    2.5169    1.4531    0.0000 C   0  0  0  0  0  0  0  0  0  0  0  0
    1.6779    0.9688    0.0000 C   0  0  0  0  0  0  0  0  0  0  0  0
    0.8390    1.4531    0.0000 C   0  0  0  0  0  0  0  0  0  0  0  0
    0.0000    0.9687    0.0000 C   0  0  0  0  0  0  0  0  0  0  0  0
    0.0000    0.0000    0.0000 O   0  0  0  0  0  0  0  0  0  0  0  0
  1  2  1  0  0  0  0
  2 27  1  0  0  0  0
  2  3  2  0  0  0  0
  3  4  1  0  0  0  0
  4  5  1  0  0  0  0
  4 11  1  0  0  0  0
  4 17  1  0  0  0  0
  5 10  2  0  0  0  0
  5  6  1  0  0  0  0
  6  7  2  0  0  0  0
  7  8  1  0  0  0  0
  8  9  2  0  0  0  0
  9 10  1  0  0  0  0
 11 16  2  0  0  0  0
 11 12  1  0  0  0  0
 12 13  2  0  0  0  0
 13 14  1  0  0  0  0
 14 15  2  0  0  0  0
 15 16  1  0  0  0  0
 17 26  2  0  0  0  0
 17 18  1  0  0  0  0
 18 19  2  0  0  0  0
 19 20  1  0  0  0  0
 20 25  2  0  0  0  0
 20 21  1  0  0  0  0
 21 22  2  0  0  0  0
 22 23  1  0  0  0  0
 23 24  2  0  0  0  0
 24 25  1  0  0  0  0
 25 26  1  0  0  0  0
 26 27  1  0  0  0  0
M  END
> <NMREDATA_VERSION>
1.1

> <NMREDATA_LEVEL>
0

> <NMREDATA_SOLVENT>
CDCl3

> <NMREDATA_FORMULA>
C25H20OP

> <NMREDATA_SMILES>
CC1=C[P+](c2c(O1)c1ccccc1cc2)(c1ccccc1)c1ccccc1

> <NMREDATA_ASSIGNMENT>
P4, -11.14, 4

> <NMREDATA_1D_31P>
Larmor=162
-11.14, L=P4

$$$$
