
 OpenBabel06112616462D

 40 46  0  0  0  0  0  0  0  0999 V2000
   -0.0003   -2.9368    0.0000 C   0  0  0  0  0  0  0  0  0  0  0  0
   -0.0004   -3.9155    0.0000 C   0  0  0  0  0  0  0  0  0  0  0  0
    0.8936   -4.3137    0.0000 C   0  0  0  0  0  0  0  0  0  0  0  0
    0.9958   -5.2870    0.0000 C   0  0  0  0  0  0  0  0  0  0  0  0
    0.2040   -5.8622    0.0000 C   0  0  0  0  0  0  0  0  0  0  0  0
   -0.6901   -5.4640    0.0000 C   0  0  0  0  0  0  0  0  0  0  0  0
   -0.7922   -4.4907    0.0000 C   0  0  0  0  0  0  0  0  0  0  0  0
    0.8479   -2.4475    0.0000 C   0  0  0  0  0  0  0  0  0  0  0  0
    0.8480   -1.4682    0.0000 C   0  0  0  0  0  0  0  0  0  0  0  0
    0.0000   -0.9787    0.0000 C   0  0  0  0  0  0  0  0  0  0  0  0
    0.0000    0.0000    0.0000 P   0  0  0  0  0  0  0  0  0  0  0  0
    0.8941   -0.3981    0.0000 O   0  0  0  0  0  0  0  0  0  0  0  0
    0.3981    0.8941    0.0000 C   0  0  0  0  0  0  0  0  0  0  0  0
   -0.1772    1.6859    0.0000 C   0  0  0  0  0  0  0  0  0  0  0  0
    0.2209    2.5799    0.0000 C   0  0  0  0  0  0  0  0  0  0  0  0
    1.1942    2.6822    0.0000 C   0  0  0  0  0  0  0  0  0  0  0  0
    1.7695    1.8905    0.0000 C   0  0  0  0  0  0  0  0  0  0  0  0
    1.3714    0.9964    0.0000 C   0  0  0  0  0  0  0  0  0  0  0  0
   -0.8941    0.3981    0.0000 C   0  0  0  0  0  0  0  0  0  0  0  0
   -1.6859   -0.1772    0.0000 C   0  0  0  0  0  0  0  0  0  0  0  0
   -2.5799    0.2209    0.0000 C   0  0  0  0  0  0  0  0  0  0  0  0
   -2.6822    1.1942    0.0000 C   0  0  0  0  0  0  0  0  0  0  0  0
   -1.8905    1.7695    0.0000 C   0  0  0  0  0  0  0  0  0  0  0  0
   -1.8905    0.7218    0.0000 C   0  0  0  0  0  0  0  0  0  0  0  0
   -0.8476   -1.4680    0.0000 C   0  0  0  0  0  0  0  0  0  0  0  0
   -1.6956   -0.9782    0.0000 C   0  0  0  0  0  0  0  0  0  0  0  0
   -2.5438   -1.4678    0.0000 C   0  0  0  0  0  0  0  0  0  0  0  0
   -2.5439   -2.4471    0.0000 C   0  0  0  0  0  0  0  0  0  0  0  0
   -3.4332   -2.9604    0.0000 C   0  0  0  0  0  0  0  0  0  0  0  0
   -4.3225   -3.4736    0.0000 N   0  0  0  0  0  0  0  0  0  0  0  0
   -1.6959   -2.9368    0.0000 C   0  0  0  0  0  0  0  0  0  0  0  0
   -0.8477   -2.4473    0.0000 C   0  0  0  0  0  0  0  0  0  0  0  0
    1.6956   -0.9789    0.0000 C   0  0  0  0  0  0  0  0  0  0  0  0
    1.6956    0.0211    0.0000 O   0  0  0  0  0  0  0  0  0  0  0  0
    2.5436   -1.4684    0.0000 C   0  0  0  0  0  0  0  0  0  0  0  0
    3.3917   -0.9791    0.0000 C   0  0  0  0  0  0  0  0  0  0  0  0
    4.2392   -1.4686    0.0000 C   0  0  0  0  0  0  0  0  0  0  0  0
    4.2391   -2.4479    0.0000 C   0  0  0  0  0  0  0  0  0  0  0  0
    3.3915   -2.9372    0.0000 C   0  0  0  0  0  0  0  0  0  0  0  0
    2.5435   -2.4477    0.0000 C   0  0  0  0  0  0  0  0  0  0  0  0
  1 32  2  0  0  0  0
  1  2  1  0  0  0  0
  1  8  1  0  0  0  0
  2  7  2  0  0  0  0
  2  3  1  0  0  0  0
  3  4  2  0  0  0  0
  4  5  1  0  0  0  0
  5  6  2  0  0  0  0
  6  7  1  0  0  0  0
  8 40  1  0  0  0  0
  8  9  2  0  0  0  0
  9 10  1  0  0  0  0
  9 33  1  0  0  0  0
 10 11  1  0  0  0  0
 10 25  2  0  0  0  0
 11 12  2  0  0  0  0
 11 13  1  0  0  0  0
 11 19  1  0  0  0  0
 13 18  2  0  0  0  0
 13 14  1  0  0  0  0
 14 15  2  0  0  0  0
 15 16  1  0  0  0  0
 16 17  2  0  0  0  0
 17 18  1  0  0  0  0
 19 24  2  0  0  0  0
 19 20  1  0  0  0  0
 20 21  2  0  0  0  0
 21 22  1  0  0  0  0
 22 23  2  0  0  0  0
 23 24  1  0  0  0  0
 25 32  1  0  0  0  0
 25 26  1  0  0  0  0
 26 27  2  0  0  0  0
 27 28  1  0  0  0  0
 28 29  1  0  0  0  0
 28 31  2  0  0  0  0
 29 30  3  0  0  0  0
 31 32  1  0  0  0  0
 33 34  2  0  0  0  0
 33 35  1  0  0  0  0
 35 40  2  0  0  0  0
 35 36  1  0  0  0  0
 36 37  2  0  0  0  0
 37 38  1  0  0  0  0
 38 39  2  0  0  0  0
 39 40  1  0  0  0  0
M  END
> <NMREDATA_VERSION>
1.1

> <NMREDATA_LEVEL>
0

> <NMREDATA_SOLVENT>
CDCl3

> <NMREDATA_FORMULA>
C36H22NO2P

> <NMREDATA_SMILES>
N#Cc1ccc2c(c1)c(c1ccccc1)c1-c3ccccc3C(=O)c1c2P(=O)(c1ccccc1)c1ccccc1

> <NMREDATA_ASSIGNMENT>
P11, 33.70, 11

> <NMREDATA_1D_31P>
Larmor=202
33.70, L=P11

$$$$
