
 OpenBabel06112616452D

 30 31  0  0  0  0  0  0  0  0999 V2000
   10.0521   -2.5000    0.0000 O   0  0  0  0  0  0  0  0  0  0  0  0
   10.0521   -1.5000    0.0000 S   0  0  0  0  0  0  0  0  0  0  0  0
   11.0521   -1.5000    0.0000 O   0  0  0  0  0  0  0  0  0  0  0  0
   10.0521   -0.5000    0.0000 O   0  5  0  0  0  0  0  0  0  0  0  0
    9.0521   -1.5000    0.0000 C   0  0  0  0  0  0  0  0  0  0  0  0
    8.1861   -2.0000    0.0000 F   0  0  0  0  0  0  0  0  0  0  0  0
    9.0521   -2.5000    0.0000 F   0  0  0  0  0  0  0  0  0  0  0  0
    8.5521   -0.6340    0.0000 F   0  0  0  0  0  0  0  0  0  0  0  0
    0.8949   -3.5394    0.0000 C   0  0  0  0  0  0  0  0  0  0  0  0
    0.5000   -2.6525    0.0000 C   0  0  0  0  0  0  0  0  0  0  0  0
    1.0702   -1.8676    0.0000 C   0  0  0  0  0  0  0  0  0  0  0  0
    2.0356   -1.9688    0.0000 C   0  0  0  0  0  0  0  0  0  0  0  0
    3.5711   -1.2851    0.0000 C   0  0  0  0  0  0  0  0  0  0  0  0
    4.1418   -0.5000    0.0000 C   0  0  0  0  0  0  0  0  0  0  0  0
    5.1067   -0.6015    0.0000 C   0  0  0  0  0  0  0  0  0  0  0  0
    5.5015   -1.4883    0.0000 C   0  0  0  0  0  0  0  0  0  0  0  0
    4.9313   -2.2733    0.0000 C   0  0  0  0  0  0  0  0  0  0  0  0
    3.9660   -2.1720    0.0000 C   0  0  0  0  0  0  0  0  0  0  0  0
    3.3958   -2.9570    0.0000 S   0  3  0  0  0  0  0  0  0  0  0  0
    3.7904   -3.8433    0.0000 C   0  0  0  0  0  0  0  0  0  0  0  0
    4.7606   -3.8433    0.0000 P   0  0  0  0  0  0  0  0  0  0  0  0
    4.7606   -4.8135    0.0000 O   0  0  0  0  0  0  0  0  0  0  0  0
    5.7308   -3.8433    0.0000 O   0  0  0  0  0  0  0  0  0  0  0  0
    6.2159   -4.6835    0.0000 C   0  0  0  0  0  0  0  0  0  0  0  0
    7.1861   -4.6835    0.0000 C   0  0  0  0  0  0  0  0  0  0  0  0
    4.7606   -2.8731    0.0000 O   0  0  0  0  0  0  0  0  0  0  0  0
    5.6008   -2.3880    0.0000 C   0  0  0  0  0  0  0  0  0  0  0  0
    6.4410   -2.8731    0.0000 C   0  0  0  0  0  0  0  0  0  0  0  0
    2.4304   -2.8557    0.0000 C   0  0  0  0  0  0  0  0  0  0  0  0
    1.8597   -3.6408    0.0000 C   0  0  0  0  0  0  0  0  0  0  0  0
  1  2  2  0  0  0  0
  2  3  2  0  0  0  0
  2  4  1  0  0  0  0
  2  5  1  0  0  0  0
  5  6  1  0  0  0  0
  5  7  1  0  0  0  0
  5  8  1  0  0  0  0
  9 30  2  0  0  0  0
  9 10  1  0  0  0  0
 10 11  2  0  0  0  0
 11 12  1  0  0  0  0
 12 29  2  0  0  0  0
 12 13  1  0  0  0  0
 13 18  2  0  0  0  0
 13 14  1  0  0  0  0
 14 15  2  0  0  0  0
 15 16  1  0  0  0  0
 16 17  2  0  0  0  0
 17 18  1  0  0  0  0
 18 19  1  0  0  0  0
 19 20  1  0  0  0  0
 19 29  1  0  0  0  0
 20 21  1  0  0  0  0
 21 22  2  0  0  0  0
 21 23  1  0  0  0  0
 21 26  1  0  0  0  0
 23 24  1  0  0  0  0
 24 25  1  0  0  0  0
 26 27  1  0  0  0  0
 27 28  1  0  0  0  0
 29 30  1  0  0  0  0
M  END
> <NMREDATA_VERSION>
1.1

> <NMREDATA_LEVEL>
0

> <NMREDATA_SOLVENT>
CDCl3

> <NMREDATA_FORMULA>
C18H20F3O6PS2

> <NMREDATA_SMILES>
FC(S(=O)(=O)[O-])(F)F.CCOP(=O)(C[S+]1c2ccccc2-c2c1cccc2)OCC

> <NMREDATA_ASSIGNMENT>
P21, 11.63, 21

> <NMREDATA_1D_31P>
Larmor=162
11.63, L=P21

$$$$
