
 OpenBabel06112616432D

 37 42  0  0  0  0  0  0  0  0999 V2000
   -0.8083    0.4667    0.0000 C   0  0  0  0  0  0  0  0  0  0  0  0
   -0.8083    1.4000    0.0000 C   0  0  0  0  0  0  0  0  0  0  0  0
    0.0000    1.8667    0.0000 C   0  0  0  0  0  0  0  0  0  0  0  0
    0.8083    1.4000    0.0000 C   0  0  0  0  0  0  0  0  0  0  0  0
    1.6166    1.8667    0.0000 P   0  0  0  0  0  0  0  0  0  0  0  0
    2.4249    1.4000    0.0000 C   0  0  0  0  0  0  0  0  0  0  0  0
    3.2332    1.8667    0.0000 C   0  0  0  0  0  0  0  0  0  0  0  0
    4.0415    1.4000    0.0000 C   0  0  0  0  0  0  0  0  0  0  0  0
    4.0415    0.4667    0.0000 C   0  0  0  0  0  0  0  0  0  0  0  0
    3.2332    0.0000    0.0000 C   0  0  0  0  0  0  0  0  0  0  0  0
    2.4249    0.4667    0.0000 C   0  0  0  0  0  0  0  0  0  0  0  0
    1.6166    2.8000    0.0000 C   0  0  0  0  0  0  0  0  0  0  0  0
    0.8083    3.2667    0.0000 C   0  0  0  0  0  0  0  0  0  0  0  0
   -2.4249    1.4000    0.0000 C   0  0  0  0  0  0  0  0  0  0  0  0
   -3.2332    1.8667    0.0000 C   0  0  0  0  0  0  0  0  0  0  0  0
   -3.2332    2.8000    0.0000 C   0  0  0  0  0  0  0  0  0  0  0  0
   -2.4249    3.2667    0.0000 C   0  0  0  0  0  0  0  0  0  0  0  0
   -2.4249    4.2000    0.0000 C   0  0  0  0  0  0  0  0  0  0  0  0
   -3.2332    4.6667    0.0000 C   0  0  0  0  0  0  0  0  0  0  0  0
   -3.2332    5.6000    0.0000 C   0  0  0  0  0  0  0  0  0  0  0  0
   -4.0415    4.2000    0.0000 C   0  0  0  0  0  0  0  0  0  0  0  0
   -4.0415    3.2667    0.0000 C   0  0  0  0  0  0  0  0  0  0  0  0
   -4.0415    1.4000    0.0000 C   0  0  0  0  0  0  0  0  0  0  0  0
   -4.0415    0.4667    0.0000 C   0  0  0  0  0  0  0  0  0  0  0  0
   -3.2332    0.0000    0.0000 C   0  0  0  0  0  0  0  0  0  0  0  0
   -2.4249    0.4667    0.0000 C   0  0  0  0  0  0  0  0  0  0  0  0
   -1.6166    0.0000    0.0000 C   0  0  0  0  0  0  0  0  0  0  0  0
   -1.6166   -0.9333    0.0000 C   0  0  0  0  0  0  0  0  0  0  0  0
   -2.4249   -1.4000    0.0000 C   0  0  0  0  0  0  0  0  0  0  0  0
   -3.2332   -0.9333    0.0000 C   0  0  0  0  0  0  0  0  0  0  0  0
    0.8083    4.2000    0.0000 C   0  0  0  0  0  0  0  0  0  0  0  0
    1.6166    4.6667    0.0000 C   0  0  0  0  0  0  0  0  0  0  0  0
    1.6166    5.6000    0.0000 C   0  0  0  0  0  0  0  0  0  0  0  0
    2.4249    4.2000    0.0000 C   0  0  0  0  0  0  0  0  0  0  0  0
    2.4249    3.2667    0.0000 C   0  0  0  0  0  0  0  0  0  0  0  0
    0.8083    0.4667    0.0000 C   0  0  0  0  0  0  0  0  0  0  0  0
    0.0000    0.0000    0.0000 C   0  0  0  0  0  0  0  0  0  0  0  0
  1 37  2  0  0  0  0
  1  2  1  0  0  0  0
  2  3  2  0  0  0  0
  3  4  1  0  0  0  0
  4  5  1  0  0  0  0
  4 36  2  0  0  0  0
  5  6  1  0  0  0  0
  5 12  1  0  0  0  0
  6 11  2  0  0  0  0
  6  7  1  0  0  0  0
  7  8  2  0  0  0  0
  8  9  1  0  0  0  0
  9 10  2  0  0  0  0
 10 11  1  0  0  0  0
 12 35  2  0  0  0  0
 12 13  1  0  0  0  0
 13 14  1  0  0  0  0
 13 31  2  0  0  0  0
 14 26  2  0  0  0  0
 14 15  1  0  0  0  0
 15 16  1  0  0  0  0
 15 23  2  0  0  0  0
 16 22  2  0  0  0  0
 16 17  1  0  0  0  0
 17 18  2  0  0  0  0
 18 19  1  0  0  0  0
 19 20  1  0  0  0  0
 19 21  2  0  0  0  0
 21 22  1  0  0  0  0
 23 24  1  0  0  0  0
 24 25  2  0  0  0  0
 25 30  1  0  0  0  0
 25 26  1  0  0  0  0
 26 27  1  0  0  0  0
 27 28  2  0  0  0  0
 28 29  1  0  0  0  0
 29 30  2  0  0  0  0
 31 32  1  0  0  0  0
 32 33  1  0  0  0  0
 32 34  2  0  0  0  0
 34 35  1  0  0  0  0
 36 37  1  0  0  0  0
M  END
> <NMREDATA_VERSION>
1.1

> <NMREDATA_LEVEL>
0

> <NMREDATA_SOLVENT>
CDCl3

> <NMREDATA_FORMULA>
C36H29P

> <NMREDATA_SMILES>
Cc1ccc(c(c1)c1c(ccc2c1cccc2)c1ccc(cc1)C)P(c1ccccc1)c1ccccc1

> <NMREDATA_ASSIGNMENT>
P5, -15.51, 5

> <NMREDATA_1D_31P>
Larmor=202
-15.51, L=P5

$$$$
