
 OpenBabel06112616482D

 19 20  0  0  0  0  0  0  0  0999 V2000
     1.866    -1.500     0.000 C   0  0  0  0  0  0  0  0  0  0  0  0
     1.000    -1.000     0.000 C   0  0  0  0  0  0  0  0  0  0  0  0
     0.000    -1.000     0.000 C   0  0  0  0  0  0  0  0  0  0  0  0
     0.500    -1.866     0.000 C   0  0  0  0  0  0  0  0  0  0  0  0
     1.000     0.000     0.000 P   0  0  3  0  0  0  0  0  0  0  0  0
     2.000     0.000     0.000 O   0  0  0  0  0  0  0  0  0  0  0  0
     1.000     1.000     0.000 O   0  0  0  0  0  0  0  0  0  0  0  0
     0.000     0.000     0.000 C   0  0  0  0  0  0  0  0  0  0  0  0
    -0.500    -0.866     0.000 C   0  0  0  0  0  0  0  0  0  0  0  0
    -1.500    -0.866     0.000 C   0  0  0  0  0  0  0  0  0  0  0  0
    -2.000     0.000     0.000 C   0  0  0  0  0  0  0  0  0  0  0  0
    -3.000     0.000     0.000 C   0  0  0  0  0  0  0  0  0  0  0  0
    -3.500    -0.866     0.000 C   0  0  0  0  0  0  0  0  0  0  0  0
    -4.500    -0.866     0.000 C   0  0  0  0  0  0  0  0  0  0  0  0
    -5.000     0.000     0.000 C   0  0  0  0  0  0  0  0  0  0  0  0
    -4.500     0.866     0.000 C   0  0  0  0  0  0  0  0  0  0  0  0
    -3.500     0.866     0.000 C   0  0  0  0  0  0  0  0  0  0  0  0
    -1.500     0.866     0.000 C   0  0  0  0  0  0  0  0  0  0  0  0
    -0.500     0.866     0.000 C   0  0  0  0  0  0  0  0  0  0  0  0
  1  2  1  0  0  0  0
  2  3  1  0  0  0  0
  2  4  1  0  0  0  0
  2  5  1  0  0  0  0
  5  6  2  0  0  0  0
  5  7  1  0  0  0  0
  5  8  1  0  0  0  0
  8 19  2  0  0  0  0
  8  9  1  0  0  0  0
  9 10  2  0  0  0  0
 10 11  1  0  0  0  0
 11 12  1  0  0  0  0
 11 18  2  0  0  0  0
 12 17  2  0  0  0  0
 12 13  1  0  0  0  0
 13 14  2  0  0  0  0
 14 15  1  0  0  0  0
 15 16  2  0  0  0  0
 16 17  1  0  0  0  0
 18 19  1  0  0  0  0
M  END
> <NMREDATA_VERSION>
1.1

> <NMREDATA_LEVEL>
0

> <NMREDATA_SOLVENT>
CDCl3

> <NMREDATA_FORMULA>
C16H19O2P

> <NMREDATA_SMILES>
OP(=O)(C(C)(C)C)c1ccc(cc1)c1ccccc1

> <NMREDATA_ASSIGNMENT>
P5, 52.70, 5

> <NMREDATA_1D_31P>
Larmor=162
52.70, L=P5

$$$$
