
 OpenBabel06112616472D

 28 30  0  0  1  0  0  0  0  0999 V2000
   -0.3517    3.6132    0.0000 C   0  0  0  0  0  0  0  0  0  0  0  0
   -0.6607    2.6622    0.0000 C   0  0  0  0  0  0  0  0  0  0  0  0
    0.0084    1.9190    0.0000 C   0  0  0  0  0  0  0  0  0  0  0  0
   -0.3006    0.9680    0.0000 C   0  0  0  0  0  0  0  0  0  0  0  0
   -1.2788    0.7601    0.0000 C   0  0  0  0  0  0  0  0  0  0  0  0
   -1.5878   -0.1910    0.0000 C   0  0  0  0  0  0  0  0  0  0  0  0
   -1.0000   -1.0000    0.0000 C   0  0  0  0  0  0  0  0  0  0  0  0
    0.0000   -1.0000    0.0000 P   0  0  0  0  0  0  0  0  0  0  0  0
    0.0000   -2.0000    0.0000 O   0  0  0  0  0  0  0  0  0  0  0  0
    1.0000   -1.0000    0.0000 O   0  0  0  0  0  0  0  0  0  0  0  0
    1.5000   -1.8660    0.0000 C   0  0  0  0  0  0  0  0  0  0  0  0
    2.5000   -1.8660    0.0000 C   0  0  0  0  0  0  0  0  0  0  0  0
    0.0000    0.0000    0.0000 O   0  0  0  0  0  0  0  0  0  0  0  0
    0.8660    0.5000    0.0000 C   0  0  0  0  0  0  0  0  0  0  0  0
    1.7321    0.0000    0.0000 C   0  0  0  0  0  0  0  0  0  0  0  0
   -1.5878   -1.8090    0.0000 C   0  0  0  0  0  0  0  0  0  0  0  0
   -1.2788   -2.7601    0.0000 O   0  0  0  0  0  0  0  0  0  0  0  0
   -2.5388   -1.5000    0.0000 N   0  0  0  0  0  0  0  0  0  0  0  0
   -3.3479   -2.0878    0.0000 C   0  0  0  0  0  0  0  0  0  0  0  0
   -2.5388   -0.5000    0.0000 C   0  0  3  0  0  0  0  0  0  0  0  0
   -3.4524   -0.9067    0.0000 C   0  0  0  0  0  0  0  0  0  0  0  0
   -4.2614   -0.3190    0.0000 C   0  0  0  0  0  0  0  0  0  0  0  0
   -4.1569    0.6756    0.0000 C   0  0  0  0  0  0  0  0  0  0  0  0
   -4.9659    1.2634    0.0000 O   0  0  0  0  0  0  0  0  0  0  0  0
   -3.2433    1.0823    0.0000 C   0  0  0  0  0  0  0  0  0  0  0  0
   -2.4343    0.4945    0.0000 C   0  0  0  0  0  0  0  0  0  0  0  0
   -1.9479    1.5032    0.0000 C   0  0  0  0  0  0  0  0  0  0  0  0
   -1.6389    2.4543    0.0000 C   0  0  0  0  0  0  0  0  0  0  0  0
  1  2  1  0  0  0  0
  2 28  2  0  0  0  0
  2  3  1  0  0  0  0
  3  4  2  0  0  0  0
  4  5  1  0  0  0  0
  5  6  1  0  0  0  0
  5 27  2  0  0  0  0
  6 20  1  0  0  0  0
  6  7  2  0  0  0  0
  7  8  1  0  0  0  0
  7 16  1  0  0  0  0
  8  9  2  0  0  0  0
  8 10  1  0  0  0  0
  8 13  1  0  0  0  0
 10 11  1  0  0  0  0
 11 12  1  0  0  0  0
 13 14  1  0  0  0  0
 14 15  1  0  0  0  0
 16 17  2  0  0  0  0
 16 18  1  0  0  0  0
 18 19  1  0  0  0  0
 18 20  1  0  0  0  0
 20 26  1  0  0  0  0
 20 21  1  0  0  0  0
 21 22  2  0  0  0  0
 22 23  1  0  0  0  0
 23 24  2  0  0  0  0
 23 25  1  0  0  0  0
 25 26  2  0  0  0  0
 27 28  1  0  0  0  0
M  END
> <NMREDATA_VERSION>
1.1

> <NMREDATA_LEVEL>
0

> <NMREDATA_SOLVENT>
CDCl3

> <NMREDATA_FORMULA>
C21H24NO5P

> <NMREDATA_SMILES>
CCOP(=O)(C1=C(c2ccc(cc2)C)C2(N(C1=O)C)C=CC(=O)C=C2)OCC

> <NMREDATA_ASSIGNMENT>
P8, 7.77, 8

> <NMREDATA_1D_31P>
Larmor=162
7.77, L=P8

$$$$
