
 OpenBabel06112616432D

 33 37  0  0  0  0  0  0  0  0999 V2000
    1.4904    0.0000    0.0000 C    0  0  0  0  0  0  0  0  0  0  0  0
    2.2356   -0.4302    0.0000 C    0  0  0  0  0  0  0  0  0  0  0  0
    2.9807   -0.8605    0.0000 N    0  0  0  0  0  0  0  0  0  0  0  0
    0.7452   -0.4302    0.0000 C    0  0  0  0  0  0  0  0  0  0  0  0
    0.7452   -1.2907    0.0000 C    0  0  0  0  0  0  0  0  0  0  0  0
    0.0000   -1.7209    0.0000 C    0  0  0  0  0  0  0  0  0  0  0  0
   -0.7452   -1.2907    0.0000 C    0  0  0  0  0  0  0  0  0  0  0  0
   -3.7259   -3.0116    0.0000 C    0  0  0  0  0  0  0  0  0  0  0  0
   -4.4711   -2.5814    0.0000 C    0  0  0  0  0  0  0  0  0  0  0  0
   -5.2163   -3.0116    0.0000 C    0  0  0  0  0  0  0  0  0  0  0  0
   -5.9615   -2.5814    0.0000 C    0  0  0  0  0  0  0  0  0  0  0  0
   -5.9615   -1.7209    0.0000 C    0  0  0  0  0  0  0  0  0  0  0  0
   -5.2163   -1.2907    0.0000 C    0  0  0  0  0  0  0  0  0  0  0  0
   -4.4711   -1.7209    0.0000 C    0  0  0  0  0  0  0  0  0  0  0  0
   -3.7259   -1.2907    0.0000 P    0  0  0  0  0  0  0  0  0  0  0  0
   -3.7259   -0.4302    0.0000 C    0  0  0  0  0  0  0  0  0  0  0  0
   -2.9807    0.0000    0.0000 C    0  0  0  0  0  0  0  0  0  0  0  0
   -2.9807    0.8605    0.0000 C    0  0  0  0  0  0  0  0  0  0  0  0
   -3.7259    1.2907    0.0000 C    0  0  0  0  0  0  0  0  0  0  0  0
   -4.4711    0.8605    0.0000 C    0  0  0  0  0  0  0  0  0  0  0  0
   -4.4711    0.0000    0.0000 C    0  0  0  0  0  0  0  0  0  0  0  0
   -0.7452   -3.0116    0.0000 C    0  0  0  0  0  0  0  0  0  0  0  0
   -0.7452   -3.8721    0.0000 C    0  0  0  0  0  0  0  0  0  0  0  0
    0.0000   -4.3023    0.0000 C    0  0  0  0  0  0  0  0  0  0  0  0
    0.7452   -3.8721    0.0000 C    0  0  0  0  0  0  0  0  0  0  0  0
    0.7452   -3.0116    0.0000 C    0  0  0  0  0  0  0  0  0  0  0  0
    0.0000   -2.5814    0.0000 C    0  0  0  0  0  0  0  0  0  0  0  0
   -5.2163   -3.8721    0.0000 C    0  0  0  0  0  0  0  0  0  0  0  0
   -5.9615   -4.3023    0.0000 Cl   0  0  0  0  0  0  0  0  0  0  0  0
   -4.4711   -4.3023    0.0000 C    0  0  0  0  0  0  0  0  0  0  0  0
   -3.7259   -3.8721    0.0000 C    0  0  0  0  0  0  0  0  0  0  0  0
   -0.7452   -0.4302    0.0000 C    0  0  0  0  0  0  0  0  0  0  0  0
    0.0000    0.0000    0.0000 C    0  0  0  0  0  0  0  0  0  0  0  0
  1  2  1  0  0  0  0
  1  4  1  0  0  0  0
  2  3  3  0  0  0  0
  4 33  2  0  0  0  0
  4  5  1  0  0  0  0
  5  6  2  0  0  0  0
  6  7  1  0  0  0  0
  7  8  1  0  0  0  0
  7 32  2  0  0  0  0
  8 31  2  0  0  0  0
  8  9  1  0  0  0  0
  9 14  2  0  0  0  0
  9 10  1  0  0  0  0
 10 11  2  0  0  0  0
 10 28  1  0  0  0  0
 11 12  1  0  0  0  0
 12 13  2  0  0  0  0
 13 14  1  0  0  0  0
 14 15  1  0  0  0  0
 15 16  1  0  0  0  0
 15 22  1  0  0  0  0
 16 21  2  0  0  0  0
 16 17  1  0  0  0  0
 17 18  2  0  0  0  0
 18 19  1  0  0  0  0
 19 20  2  0  0  0  0
 20 21  1  0  0  0  0
 22 27  2  0  0  0  0
 22 23  1  0  0  0  0
 23 24  2  0  0  0  0
 24 25  1  0  0  0  0
 25 26  2  0  0  0  0
 26 27  1  0  0  0  0
 28 29  1  0  0  0  0
 28 30  2  0  0  0  0
 30 31  1  0  0  0  0
 32 33  1  0  0  0  0
M  END
> <NMREDATA_VERSION>
1.1

> <NMREDATA_LEVEL>
0

> <NMREDATA_SOLVENT>
CDCl3

> <NMREDATA_FORMULA>
C30H21ClNP

> <NMREDATA_SMILES>
N#CCc1ccc(cc1)c1ccc(c2c1c(ccc2)P(c1ccccc1)c1ccccc1)Cl

> <NMREDATA_ASSIGNMENT>
P15, -8.60, 15

> <NMREDATA_1D_31P>
Larmor=162
-8.60, L=P15

$$$$
