
 OpenBabel06112616432D

 33 37  0  0  0  0  0  0  0  0999 V2000
    1.0000   -1.0000    0.0000 O    0  0  0  0  0  0  0  0  0  0  0  0
    1.0000    0.0000    0.0000 P    0  0  3  0  0  0  0  0  0  0  0  0
    2.0000    0.0000    0.0000 N    0  0  0  0  0  0  0  0  0  0  0  0
    2.5000   -0.8660    0.0000 C    0  0  0  0  0  0  0  0  0  0  0  0
    2.0933   -1.7796    0.0000 C    0  0  0  0  0  0  0  0  0  0  0  0
    2.8364   -2.4487    0.0000 C    0  0  0  0  0  0  0  0  0  0  0  0
    2.8364   -3.4487    0.0000 C    0  0  0  0  0  0  0  0  0  0  0  0
    3.7024   -3.9487    0.0000 C    0  0  0  0  0  0  0  0  0  0  0  0
    4.5685   -3.4487    0.0000 C    0  0  0  0  0  0  0  0  0  0  0  0
    4.5685   -2.4487    0.0000 C    0  0  0  0  0  0  0  0  0  0  0  0
    3.7024   -1.9487    0.0000 C    0  0  0  0  0  0  0  0  0  0  0  0
    3.4945   -0.9706    0.0000 N    0  0  0  0  0  0  0  0  0  0  0  0
    4.1637   -0.2274    0.0000 C    0  0  0  0  0  0  0  0  0  0  0  0
    5.1418   -0.4353    0.0000 N    0  0  0  0  0  0  0  0  0  0  0  0
    5.8109    0.3078    0.0000 C    0  0  0  0  0  0  0  0  0  0  0  0
    5.5019    1.2589    0.0000 C    0  0  0  0  0  0  0  0  0  0  0  0
    4.5238    1.4668    0.0000 C    0  0  0  0  0  0  0  0  0  0  0  0
    3.8546    0.7236    0.0000 N    0  0  0  0  0  0  0  0  0  0  0  0
    1.0000    1.0000    0.0000 O    0  0  0  0  0  0  0  0  0  0  0  0
    1.8660    1.5000    0.0000 C    0  0  0  0  0  0  0  0  0  0  0  0
    2.7321    1.0000    0.0000 C    0  0  0  0  0  0  0  0  0  0  0  0
    3.5981    1.5000    0.0000 C    0  0  0  0  0  0  0  0  0  0  0  0
    3.5981    2.5000    0.0000 C    0  0  0  0  0  0  0  0  0  0  0  0
    2.7321    3.0000    0.0000 C    0  0  0  0  0  0  0  0  0  0  0  0
    1.8660    2.5000    0.0000 C    0  0  0  0  0  0  0  0  0  0  0  0
    0.0000    0.0000    0.0000 O    0  0  0  0  0  0  0  0  0  0  0  0
   -0.5000    0.8660    0.0000 C    0  0  0  0  0  0  0  0  0  0  0  0
   -1.5000    0.8660    0.0000 C    0  0  0  0  0  0  0  0  0  0  0  0
   -2.0000    1.7321    0.0000 C    0  0  0  0  0  0  0  0  0  0  0  0
   -1.5000    2.5981    0.0000 C    0  0  0  0  0  0  0  0  0  0  0  0
   -2.0000    3.4641    0.0000 Cl   0  0  0  0  0  0  0  0  0  0  0  0
   -0.5000    2.5981    0.0000 C    0  0  0  0  0  0  0  0  0  0  0  0
    0.0000    1.7321    0.0000 C    0  0  0  0  0  0  0  0  0  0  0  0
  1  2  2  0  0  0  0
  2  3  1  0  0  0  0
  2 19  1  0  0  0  0
  2 26  1  0  0  0  0
  3  4  1  0  0  0  0
  4 12  1  0  0  0  0
  4  5  2  0  0  0  0
  5  6  1  0  0  0  0
  6 11  2  0  0  0  0
  6  7  1  0  0  0  0
  7  8  2  0  0  0  0
  8  9  1  0  0  0  0
  9 10  2  0  0  0  0
 10 11  1  0  0  0  0
 11 12  1  0  0  0  0
 12 13  1  0  0  0  0
 13 18  2  0  0  0  0
 13 14  1  0  0  0  0
 14 15  2  0  0  0  0
 15 16  1  0  0  0  0
 16 17  2  0  0  0  0
 17 18  1  0  0  0  0
 19 20  1  0  0  0  0
 20 25  2  0  0  0  0
 20 21  1  0  0  0  0
 21 22  2  0  0  0  0
 22 23  1  0  0  0  0
 23 24  2  0  0  0  0
 24 25  1  0  0  0  0
 26 27  1  0  0  0  0
 27 33  2  0  0  0  0
 27 28  1  0  0  0  0
 28 29  2  0  0  0  0
 29 30  1  0  0  0  0
 30 31  1  0  0  0  0
 30 32  2  0  0  0  0
 32 33  1  0  0  0  0
M  END
> <NMREDATA_VERSION>
1.1

> <NMREDATA_LEVEL>
0

> <NMREDATA_SOLVENT>
CDCl3

> <NMREDATA_FORMULA>
C24H18ClN4O3P

> <NMREDATA_SMILES>
Clc1ccc(cc1)OP(=O)(Nc1cc2c(n1c1ncccn1)cccc2)Oc1ccccc1

> <NMREDATA_ASSIGNMENT>
P2, -8.87, 2

> <NMREDATA_1D_31P>
Larmor=158
-8.87, L=P2

$$$$
