
 OpenBabel06112616472D

 34 38  0  0  1  0  0  0  0  0999 V2000
   -4.3579   -2.9389    0.0000 C   0  0  0  0  0  0  0  0  0  0  0  0
   -3.9616   -3.8290    0.0000 O   0  0  0  0  0  0  0  0  0  0  0  0
   -2.9926   -3.9308    0.0000 C   0  0  0  0  0  0  0  0  0  0  0  0
   -2.4199   -3.1426    0.0000 C   0  0  0  0  0  0  0  0  0  0  0  0
   -1.4509   -3.2444    0.0000 C   0  0  0  0  0  0  0  0  0  0  0  0
   -1.0546   -4.1345    0.0000 C   0  0  0  0  0  0  0  0  0  0  0  0
   -0.0855   -4.2364    0.0000 C   0  0  0  0  0  0  0  0  0  0  0  0
    0.4872   -3.4481    0.0000 N   0  0  0  0  0  0  0  0  0  0  0  0
    0.1861   -2.5214    0.0000 C   0  0  0  0  0  0  0  0  0  0  0  0
   -0.7406   -2.2203    0.0000 O   0  0  0  0  0  0  0  0  0  0  0  0
    0.9744   -1.9487    0.0000 C   0  0  3  0  0  0  0  0  0  0  0  0
    0.9744    0.0000    0.0000 P   0  0  0  0  0  4  0  0  0  0  0  0
    1.9487    0.0000    0.0000 C   0  0  0  0  0  0  0  0  0  0  0  0
    2.4359    0.8438    0.0000 C   0  0  0  0  0  0  0  0  0  0  0  0
    3.4103    0.8438    0.0000 C   0  0  0  0  0  0  0  0  0  0  0  0
    3.8974    0.0000    0.0000 C   0  0  0  0  0  0  0  0  0  0  0  0
    3.4103   -0.8438    0.0000 C   0  0  0  0  0  0  0  0  0  0  0  0
    2.4359   -0.8438    0.0000 C   0  0  0  0  0  0  0  0  0  0  0  0
    0.9744    0.9744    0.0000 C   0  0  0  0  0  0  0  0  0  0  0  0
    0.1305    1.4615    0.0000 C   0  0  0  0  0  0  0  0  0  0  0  0
    0.1305    2.4359    0.0000 C   0  0  0  0  0  0  0  0  0  0  0  0
    0.9744    2.9231    0.0000 C   0  0  0  0  0  0  0  0  0  0  0  0
    1.8182    2.4359    0.0000 C   0  0  0  0  0  0  0  0  0  0  0  0
    1.8182    1.4615    0.0000 C   0  0  0  0  0  0  0  0  0  0  0  0
    0.0000    0.0000    0.0000 C   0  0  0  0  0  0  0  0  0  0  0  0
   -0.4872   -0.8438    0.0000 C   0  0  0  0  0  0  0  0  0  0  0  0
   -1.4615   -0.8438    0.0000 C   0  0  0  0  0  0  0  0  0  0  0  0
   -1.9487    0.0000    0.0000 C   0  0  0  0  0  0  0  0  0  0  0  0
   -1.4615    0.8438    0.0000 C   0  0  0  0  0  0  0  0  0  0  0  0
   -0.4872    0.8438    0.0000 C   0  0  0  0  0  0  0  0  0  0  0  0
    1.7626   -2.5214    0.0000 C   0  0  0  0  0  0  0  0  0  0  0  0
    1.4615   -3.4481    0.0000 C   0  0  0  0  0  0  0  0  0  0  0  0
   -1.6273   -4.9228    0.0000 C   0  0  0  0  0  0  0  0  0  0  0  0
   -2.5963   -4.8210    0.0000 C   0  0  0  0  0  0  0  0  0  0  0  0
  1  2  1  0  0  0  0
  2  3  1  0  0  0  0
  3 34  2  0  0  0  0
  3  4  1  0  0  0  0
  4  5  2  0  0  0  0
  5  6  1  0  0  0  0
  6  7  1  0  0  0  0
  6 33  2  0  0  0  0
  7  8  1  0  0  0  0
  8 32  1  0  0  0  0
  8  9  1  0  0  0  0
  9 10  2  0  0  0  0
  9 11  1  0  0  0  0
 11 12  1  0  0  0  0
 11 31  1  0  0  0  0
 12 13  1  0  0  0  0
 12 19  1  0  0  0  0
 12 25  1  0  0  0  0
 13 18  2  0  0  0  0
 13 14  1  0  0  0  0
 14 15  2  0  0  0  0
 15 16  1  0  0  0  0
 16 17  2  0  0  0  0
 17 18  1  0  0  0  0
 19 24  2  0  0  0  0
 19 20  1  0  0  0  0
 20 21  2  0  0  0  0
 21 22  1  0  0  0  0
 22 23  2  0  0  0  0
 23 24  1  0  0  0  0
 25 30  2  0  0  0  0
 25 26  1  0  0  0  0
 26 27  2  0  0  0  0
 27 28  1  0  0  0  0
 28 29  2  0  0  0  0
 29 30  1  0  0  0  0
 31 32  1  0  0  0  0
 33 34  1  0  0  0  0
M  END
> <NMREDATA_VERSION>
1.1

> <NMREDATA_LEVEL>
0

> <NMREDATA_SOLVENT>
CDCl3

> <NMREDATA_FORMULA>
C30H29NO2P

> <NMREDATA_SMILES>
COc1ccc(cc1)CN1CCC(C1=O)[P](c1ccccc1)(c1ccccc1)c1ccccc1

> <NMREDATA_ASSIGNMENT>
P12, 27.40, 12

> <NMREDATA_1D_31P>
Larmor=203
27.40, L=P12

$$$$
