
 OpenBabel06112616492D

 26 29  0  0  1  0  0  0  0  0999 V2000
   -0.9667   -2.6410    0.0000 C   0  0  0  0  0  0  0  0  0  0  0  0
    0.0000   -2.6410    0.0000 C   0  0  0  0  0  0  0  0  0  0  0  0
    0.4833   -3.4781    0.0000 C   0  0  0  0  0  0  0  0  0  0  0  0
    1.4500   -3.4781    0.0000 C   0  0  0  0  0  0  0  0  0  0  0  0
    1.9333   -2.6410    0.0000 C   0  0  0  0  0  0  0  0  0  0  0  0
    1.4500   -1.8038    0.0000 C   0  0  0  0  0  0  0  0  0  0  0  0
    1.9333   -0.9667    0.0000 C   0  0  1  0  0  0  0  0  0  0  0  0
    0.0000   -0.9667    0.0000 P   0  0  0  0  0  0  0  0  0  0  0  0
    0.0000   -1.9333    0.0000 O   0  0  0  0  0  0  0  0  0  0  0  0
   -0.9667   -0.9667    0.0000 O   0  0  0  0  0  0  0  0  0  0  0  0
   -1.4500   -0.1295    0.0000 C   0  0  0  0  0  0  0  0  0  0  0  0
   -0.9667    0.7076    0.0000 C   0  0  0  0  0  0  0  0  0  0  0  0
   -1.4500    1.5448    0.0000 C   0  0  0  0  0  0  0  0  0  0  0  0
   -2.4167    1.5448    0.0000 C   0  0  0  0  0  0  0  0  0  0  0  0
   -2.9000    0.7076    0.0000 C   0  0  0  0  0  0  0  0  0  0  0  0
   -2.4167   -0.1295    0.0000 C   0  0  0  0  0  0  0  0  0  0  0  0
    0.0000    0.0000    0.0000 O   0  0  0  0  0  0  0  0  0  0  0  0
    0.8372    0.4833    0.0000 C   0  0  0  0  0  0  0  0  0  0  0  0
    1.6743    0.0000    0.0000 C   0  0  0  0  0  0  0  0  0  0  0  0
    2.5115    0.4833    0.0000 C   0  0  0  0  0  0  0  0  0  0  0  0
    2.5115    1.4500    0.0000 C   0  0  0  0  0  0  0  0  0  0  0  0
    1.6743    1.9333    0.0000 C   0  0  0  0  0  0  0  0  0  0  0  0
    0.8372    1.4500    0.0000 C   0  0  0  0  0  0  0  0  0  0  0  0
    2.9000   -0.9667    0.0000 C   0  0  0  0  0  0  0  0  0  0  0  0
    2.4167   -0.1295    0.0000 N   0  0  0  0  0  0  0  0  0  0  0  0
    0.4833   -1.8038    0.0000 C   0  0  0  0  0  0  0  0  0  0  0  0
  1  2  1  0  0  0  0
  2 26  2  0  0  0  0
  2  3  1  0  0  0  0
  3  4  2  0  0  0  0
  4  5  1  0  0  0  0
  5  6  2  0  0  0  0
  6  7  1  0  0  0  0
  6 26  1  0  0  0  0
  7 25  1  0  0  0  0
  7  8  1  1  0  0  0
  7 24  1  0  0  0  0
  8  9  2  0  0  0  0
  8 10  1  0  0  0  0
  8 17  1  0  0  0  0
 10 11  1  0  0  0  0
 11 16  2  0  0  0  0
 11 12  1  0  0  0  0
 12 13  2  0  0  0  0
 13 14  1  0  0  0  0
 14 15  2  0  0  0  0
 15 16  1  0  0  0  0
 17 18  1  0  0  0  0
 18 23  2  0  0  0  0
 18 19  1  0  0  0  0
 19 20  2  0  0  0  0
 20 21  1  0  0  0  0
 21 22  2  0  0  0  0
 22 23  1  0  0  0  0
 24 25  1  0  0  0  0
M  END
> <NMREDATA_VERSION>
1.1

> <NMREDATA_LEVEL>
0

> <NMREDATA_SOLVENT>
CDCl3

> <NMREDATA_FORMULA>
C21H20NO3P

> <NMREDATA_SMILES>
Cc1cccc(c1)[C@@]1(NC1)P(=O)(Oc1ccccc1)Oc1ccccc1

> <NMREDATA_ASSIGNMENT>
P8, 19.77, 8

> <NMREDATA_1D_31P>
Larmor=121
19.77, L=P8

$$$$
