
 OpenBabel06112616432D

 56 62  0  0  1  0  0  0  0  0999 V2000
    0.9688    2.9062    0.0000 C    0  0  0  0  0  0  0  0  0  0  0  0
    1.8077    2.4219    0.0000 C    0  0  0  0  0  0  0  0  0  0  0  0
    1.8077    1.4531    0.0000 C    0  0  0  0  0  0  0  0  0  0  0  0
    0.9688    0.9687    0.0000 C    0  0  0  0  0  0  0  0  0  0  0  0
    0.9688    0.0000    0.0000 P    0  3  0  0  0  0  0  0  0  0  0  0
    1.9375    0.0000    0.0000 C    0  0  0  0  0  0  0  0  0  0  0  0
    2.4219   -0.8390    0.0000 C    0  0  0  0  0  0  0  0  0  0  0  0
    3.3906   -0.8390    0.0000 C    0  0  0  0  0  0  0  0  0  0  0  0
    3.8750    0.0000    0.0000 C    0  0  0  0  0  0  0  0  0  0  0  0
    3.3906    0.8390    0.0000 C    0  0  0  0  0  0  0  0  0  0  0  0
    2.4219    0.8390    0.0000 C    0  0  0  0  0  0  0  0  0  0  0  0
    0.9687   -1.9375    0.0000 C    0  0  0  0  0  0  0  0  0  0  0  0
    0.1298   -2.4219    0.0000 C    0  0  0  0  0  0  0  0  0  0  0  0
    0.1298   -3.3906    0.0000 C    0  0  0  0  0  0  0  0  0  0  0  0
    0.9687   -3.8750    0.0000 C    0  0  0  0  0  0  0  0  0  0  0  0
    1.8077   -3.3906    0.0000 C    0  0  0  0  0  0  0  0  0  0  0  0
    1.8077   -2.4219    0.0000 C    0  0  0  0  0  0  0  0  0  0  0  0
    0.0000    0.0000    0.0000 C    0  0  3  0  0  0  0  0  0  0  0  0
   -0.4844   -0.8390    0.0000 C    0  0  0  0  0  0  0  0  0  0  0  0
   -1.4531   -0.8390    0.0000 C    0  0  0  0  0  0  0  0  0  0  0  0
   -1.9375   -1.6779    0.0000 C    0  0  0  0  0  0  0  0  0  0  0  0
   -1.4531   -2.5169    0.0000 C    0  0  0  0  0  0  0  0  0  0  0  0
   -1.9375   -3.3558    0.0000 N    0  3  0  0  0  0  0  0  0  0  0  0
   -1.4531   -4.1948    0.0000 O    0  5  0  0  0  0  0  0  0  0  0  0
   -2.9062   -3.3558    0.0000 O    0  0  0  0  0  0  0  0  0  0  0  0
   -0.4844   -2.5169    0.0000 C    0  0  0  0  0  0  0  0  0  0  0  0
    0.0000   -1.6779    0.0000 C    0  0  0  0  0  0  0  0  0  0  0  0
   -0.4844    0.8390    0.0000 O    0  0  0  0  0  0  0  0  0  0  0  0
   -1.4531    0.8390    0.0000 S    0  0  0  0  0  0  0  0  0  0  0  0
   -2.4219   -0.8390    0.0000 O    0  0  0  0  0  0  0  0  0  0  0  0
   -3.3906   -0.8390    0.0000 C    0  0  0  0  0  0  0  0  0  0  0  0
   -3.8750   -1.6779    0.0000 C    0  0  0  0  0  0  0  0  0  0  0  0
   -3.3906   -2.5169    0.0000 Cl   0  0  0  0  0  0  0  0  0  0  0  0
   -4.8438   -1.6779    0.0000 C    0  0  0  0  0  0  0  0  0  0  0  0
   -5.3281   -2.5169    0.0000 Cl   0  0  0  0  0  0  0  0  0  0  0  0
   -5.3281   -0.8390    0.0000 C    0  0  0  0  0  0  0  0  0  0  0  0
   -6.2969   -0.8390    0.0000 Cl   0  0  0  0  0  0  0  0  0  0  0  0
   -4.8438    0.0000    0.0000 C    0  0  0  0  0  0  0  0  0  0  0  0
   -5.3281    0.8390    0.0000 Cl   0  0  0  0  0  0  0  0  0  0  0  0
   -3.8750    0.0000    0.0000 C    0  0  0  0  0  0  0  0  0  0  0  0
   -3.3906    0.8390    0.0000 Cl   0  0  0  0  0  0  0  0  0  0  0  0
   -0.9688    0.0000    0.0000 O    0  0  0  0  0  0  0  0  0  0  0  0
   -1.0591    1.7240    0.0000 O    0  0  0  0  0  0  0  0  0  0  0  0
   -1.7790    2.3722    0.0000 C    0  0  0  0  0  0  0  0  0  0  0  0
   -1.7790    3.3409    0.0000 C    0  0  0  0  0  0  0  0  0  0  0  0
   -0.9401    3.8253    0.0000 Cl   0  0  0  0  0  0  0  0  0  0  0  0
   -2.6180    3.8253    0.0000 C    0  0  0  0  0  0  0  0  0  0  0  0
   -2.6180    4.7941    0.0000 Cl   0  0  0  0  0  0  0  0  0  0  0  0
   -3.4569    3.3409    0.0000 C    0  0  0  0  0  0  0  0  0  0  0  0
   -4.2959    3.8253    0.0000 Cl   0  0  0  0  0  0  0  0  0  0  0  0
   -3.4569    2.3722    0.0000 C    0  0  0  0  0  0  0  0  0  0  0  0
   -4.2959    1.8878    0.0000 Cl   0  0  0  0  0  0  0  0  0  0  0  0
   -2.6180    1.8878    0.0000 C    0  0  0  0  0  0  0  0  0  0  0  0
   -2.4166    0.9402    0.0000 O    0  0  0  0  0  0  0  0  0  0  0  0
    0.1298    1.4531    0.0000 C    0  0  0  0  0  0  0  0  0  0  0  0
    0.1298    2.4219    0.0000 C    0  0  0  0  0  0  0  0  0  0  0  0
  1 56  2  0  0  0  0
  1  2  1  0  0  0  0
  2  3  2  0  0  0  0
  3  4  1  0  0  0  0
  4  5  1  0  0  0  0
  4 55  2  0  0  0  0
  5  6  1  0  0  0  0
  5 12  1  0  0  0  0
  5 18  1  0  0  0  0
  6 11  2  0  0  0  0
  6  7  1  0  0  0  0
  7  8  2  0  0  0  0
  8  9  1  0  0  0  0
  9 10  2  0  0  0  0
 10 11  1  0  0  0  0
 12 17  2  0  0  0  0
 12 13  1  0  0  0  0
 13 14  2  0  0  0  0
 14 15  1  0  0  0  0
 15 16  2  0  0  0  0
 16 17  1  0  0  0  0
 18 19  1  0  0  0  0
 18 28  1  0  0  0  0
 19 27  2  0  0  0  0
 19 20  1  0  0  0  0
 20 21  2  0  0  0  0
 21 22  1  0  0  0  0
 22 23  1  0  0  0  0
 22 26  2  0  0  0  0
 23 24  1  0  0  0  0
 23 25  2  0  0  0  0
 26 27  1  0  0  0  0
 28 29  1  0  0  0  0
 29 54  1  0  0  0  0
 29 30  1  0  0  0  0
 29 42  2  0  0  0  0
 29 43  1  0  0  0  0
 30 31  1  0  0  0  0
 31 40  2  0  0  0  0
 31 32  1  0  0  0  0
 32 33  1  0  0  0  0
 32 34  2  0  0  0  0
 34 35  1  0  0  0  0
 34 36  1  0  0  0  0
 36 37  1  0  0  0  0
 36 38  2  0  0  0  0
 38 39  1  0  0  0  0
 38 40  1  0  0  0  0
 40 41  1  0  0  0  0
 43 44  1  0  0  0  0
 44 53  2  0  0  0  0
 44 45  1  0  0  0  0
 45 46  1  0  0  0  0
 45 47  2  0  0  0  0
 47 48  1  0  0  0  0
 47 49  1  0  0  0  0
 49 50  1  0  0  0  0
 49 51  2  0  0  0  0
 51 52  1  0  0  0  0
 51 53  1  0  0  0  0
 53 54  1  0  0  0  0
 55 56  1  0  0  0  0
M  END
> <NMREDATA_VERSION>
1.1

> <NMREDATA_LEVEL>
0

> <NMREDATA_SOLVENT>
CD2Cl2

> <NMREDATA_FORMULA>
C37H20Cl9NO7PS

> <NMREDATA_SMILES>
ON(=O)c1ccc(cc1)C(P(c1ccccc1)(c1ccccc1)c1ccccc1)OS1(=O)(Oc2c(O1)c(Cl)c(c(c2Cl)Cl)Cl)Oc1c(Cl)c(Cl)c(c(c1Cl)Cl)Cl

> <NMREDATA_ASSIGNMENT>
P5, 21.70, 5

> <NMREDATA_1D_31P>
Larmor=243
21.70, L=P5

$$$$
