
 OpenBabel06112616442D

 31 35  0  0  0  0  0  0  0  0999 V2000
    1.9444    0.7117    0.0000 O   0  0  0  0  0  0  0  0  0  0  0  0
    2.4306   -0.1303    0.0000 C   0  0  0  0  0  0  0  0  0  0  0  0
    3.4028   -0.1303    0.0000 O   0  0  0  0  0  0  0  0  0  0  0  0
    3.8889   -0.9722    0.0000 C   0  0  0  0  0  0  0  0  0  0  0  0
    4.8611   -0.9722    0.0000 C   0  0  0  0  0  0  0  0  0  0  0  0
    5.3472   -1.8142    0.0000 C   0  0  0  0  0  0  0  0  0  0  0  0
    4.8611   -2.6562    0.0000 C   0  0  0  0  0  0  0  0  0  0  0  0
    3.8889   -2.6562    0.0000 C   0  0  0  0  0  0  0  0  0  0  0  0
    3.4028   -1.8142    0.0000 C   0  0  0  0  0  0  0  0  0  0  0  0
    2.4306   -1.8142    0.0000 C   0  0  0  0  0  0  0  0  0  0  0  0
    1.9444   -2.6562    0.0000 C   0  0  0  0  0  0  0  0  0  0  0  0
    2.4306   -3.4981    0.0000 C   0  0  0  0  0  0  0  0  0  0  0  0
    1.9444   -4.3401    0.0000 C   0  0  0  0  0  0  0  0  0  0  0  0
    0.9722   -4.3401    0.0000 C   0  0  0  0  0  0  0  0  0  0  0  0
    0.4861   -3.4981    0.0000 C   0  0  0  0  0  0  0  0  0  0  0  0
    0.9722   -2.6562    0.0000 C   0  0  0  0  0  0  0  0  0  0  0  0
    1.9444   -0.9722    0.0000 C   0  0  0  0  0  0  0  0  0  0  0  0
    0.0000   -0.9722    0.0000 P   0  0  0  0  0  0  0  0  0  0  0  0
    0.0000   -1.9444    0.0000 O   0  0  0  0  0  0  0  0  0  0  0  0
   -0.9722   -0.9722    0.0000 C   0  0  0  0  0  0  0  0  0  0  0  0
   -1.4583   -0.1303    0.0000 C   0  0  0  0  0  0  0  0  0  0  0  0
   -2.4306   -0.1303    0.0000 C   0  0  0  0  0  0  0  0  0  0  0  0
   -2.9167   -0.9722    0.0000 C   0  0  0  0  0  0  0  0  0  0  0  0
   -2.4306   -1.8142    0.0000 C   0  0  0  0  0  0  0  0  0  0  0  0
   -1.4583   -1.8142    0.0000 C   0  0  0  0  0  0  0  0  0  0  0  0
    0.0000    0.0000    0.0000 C   0  0  0  0  0  0  0  0  0  0  0  0
    0.8420    0.4861    0.0000 C   0  0  0  0  0  0  0  0  0  0  0  0
    0.8420    1.4583    0.0000 C   0  0  0  0  0  0  0  0  0  0  0  0
    0.0000    1.9444    0.0000 C   0  0  0  0  0  0  0  0  0  0  0  0
   -0.8420    1.4583    0.0000 C   0  0  0  0  0  0  0  0  0  0  0  0
   -0.8420    0.4861    0.0000 C   0  0  0  0  0  0  0  0  0  0  0  0
  1  2  2  0  0  0  0
  2 17  1  0  0  0  0
  2  3  1  0  0  0  0
  3  4  1  0  0  0  0
  4  9  2  0  0  0  0
  4  5  1  0  0  0  0
  5  6  2  0  0  0  0
  6  7  1  0  0  0  0
  7  8  2  0  0  0  0
  8  9  1  0  0  0  0
  9 10  1  0  0  0  0
 10 11  1  0  0  0  0
 10 17  2  0  0  0  0
 11 16  2  0  0  0  0
 11 12  1  0  0  0  0
 12 13  2  0  0  0  0
 13 14  1  0  0  0  0
 14 15  2  0  0  0  0
 15 16  1  0  0  0  0
 17 18  1  0  0  0  0
 18 19  2  0  0  0  0
 18 20  1  0  0  0  0
 18 26  1  0  0  0  0
 20 25  2  0  0  0  0
 20 21  1  0  0  0  0
 21 22  2  0  0  0  0
 22 23  1  0  0  0  0
 23 24  2  0  0  0  0
 24 25  1  0  0  0  0
 26 31  2  0  0  0  0
 26 27  1  0  0  0  0
 27 28  2  0  0  0  0
 28 29  1  0  0  0  0
 29 30  2  0  0  0  0
 30 31  1  0  0  0  0
M  END
> <NMREDATA_VERSION>
1.1

> <NMREDATA_LEVEL>
0

> <NMREDATA_SOLVENT>
CDCl3

> <NMREDATA_FORMULA>
C27H19O3P

> <NMREDATA_SMILES>
O=c1oc2ccccc2c(c1P(=O)(c1ccccc1)c1ccccc1)c1ccccc1

> <NMREDATA_ASSIGNMENT>
P18, 24.40, 18

> <NMREDATA_1D_31P>
Larmor=243
24.40, L=P18

$$$$
