
 OpenBabel06112616452D

 30 33  0  0  1  0  0  0  0  0999 V2000
    4.3676   -0.1300    0.0000 O   0  0  0  0  0  0  0  0  0  0  0  0
    3.3971   -0.1300    0.0000 C   0  0  0  0  0  0  0  0  0  0  0  0
    2.9118    0.7105    0.0000 C   0  0  0  0  0  0  0  0  0  0  0  0
    1.9412    0.7105    0.0000 C   0  0  0  0  0  0  0  0  0  0  0  0
    1.4559    1.5511    0.0000 C   0  0  0  0  0  0  0  0  0  0  0  0
    1.8507    2.4378    0.0000 C   0  0  0  0  0  0  0  0  0  0  0  0
    1.1294    3.0872    0.0000 C   0  0  0  0  0  0  0  0  0  0  0  0
    0.2888    2.6019    0.0000 C   0  0  0  0  0  0  0  0  0  0  0  0
    0.4906    1.6525    0.0000 S   0  0  0  0  0  0  0  0  0  0  0  0
    1.4559   -0.1300    0.0000 C   0  0  0  0  0  0  0  0  0  0  0  0
    1.9412   -0.9706    0.0000 C   0  0  2  0  0  0  0  0  0  0  0  0
    0.0000   -0.9706    0.0000 P   0  0  0  0  0  0  0  0  0  0  0  0
    0.0000   -1.9412    0.0000 O   0  0  0  0  0  0  0  0  0  0  0  0
   -0.9706   -0.9706    0.0000 O   0  0  0  0  0  0  0  0  0  0  0  0
   -1.4559   -1.8111    0.0000 C   0  0  0  0  0  0  0  0  0  0  0  0
   -2.4265   -1.8111    0.0000 C   0  0  0  0  0  0  0  0  0  0  0  0
    0.0000    0.0000    0.0000 O   0  0  0  0  0  0  0  0  0  0  0  0
   -0.8406    0.4853    0.0000 C   0  0  0  0  0  0  0  0  0  0  0  0
   -1.6811    0.0000    0.0000 C   0  0  0  0  0  0  0  0  0  0  0  0
    1.4559   -1.8111    0.0000 C   0  0  0  0  0  0  0  0  0  0  0  0
    0.4853   -1.8111    0.0000 C   0  0  0  0  0  0  0  0  0  0  0  0
    0.0000   -2.6517    0.0000 C   0  0  0  0  0  0  0  0  0  0  0  0
    0.4853   -3.4923    0.0000 C   0  0  0  0  0  0  0  0  0  0  0  0
    1.4559   -3.4923    0.0000 C   0  0  0  0  0  0  0  0  0  0  0  0
    1.9412   -2.6517    0.0000 C   0  0  0  0  0  0  0  0  0  0  0  0
    2.9118   -2.6517    0.0000 O   0  0  0  0  0  0  0  0  0  0  0  0
    3.3971   -1.8111    0.0000 S   0  0  0  0  0  0  0  0  0  0  0  0
    4.2376   -1.3258    0.0000 O   0  0  0  0  0  0  0  0  0  0  0  0
    4.2376   -2.2964    0.0000 O   0  0  0  0  0  0  0  0  0  0  0  0
    2.9118   -0.9706    0.0000 N   0  0  0  0  0  0  0  0  0  0  0  0
  1  2  2  0  0  0  0
  2 30  1  0  0  0  0
  2  3  1  0  0  0  0
  3  4  2  0  0  0  0
  4  5  1  0  0  0  0
  4 10  1  0  0  0  0
  5  9  1  0  0  0  0
  5  6  2  0  0  0  0
  6  7  1  0  0  0  0
  7  8  2  0  0  0  0
  8  9  1  0  0  0  0
 10 11  1  0  0  0  0
 11 30  1  0  0  0  0
 11 12  1  6  0  0  0
 11 20  1  0  0  0  0
 12 13  2  0  0  0  0
 12 14  1  0  0  0  0
 12 17  1  0  0  0  0
 14 15  1  0  0  0  0
 15 16  1  0  0  0  0
 17 18  1  0  0  0  0
 18 19  1  0  0  0  0
 20 25  2  0  0  0  0
 20 21  1  0  0  0  0
 21 22  2  0  0  0  0
 22 23  1  0  0  0  0
 23 24  2  0  0  0  0
 24 25  1  0  0  0  0
 25 26  1  0  0  0  0
 26 27  1  0  0  0  0
 27 28  2  0  0  0  0
 27 29  2  0  0  0  0
 27 30  1  0  0  0  0
M  END
> <NMREDATA_VERSION>
1.1

> <NMREDATA_LEVEL>
0

> <NMREDATA_SOLVENT>
CDCl3

> <NMREDATA_FORMULA>
C19H20NO7PS2

> <NMREDATA_SMILES>
CCOP(=O)([C@@]12CC(=CC(=O)N2S(=O)(=O)Oc2c1cccc2)c1cccs1)OCC

> <NMREDATA_ASSIGNMENT>
P12, 17.30, 12

> <NMREDATA_1D_31P>
Larmor=162
17.30, L=P12

$$$$
