
 OpenBabel06112616472D

 34 37  0  0  0  0  0  0  0  0999 V2000
    1.7703    2.3718    0.0000 C   0  0  0  0  0  0  0  0  0  0  0  0
    0.9487    1.8974    0.0000 C   0  0  0  0  0  0  0  0  0  0  0  0
   -0.6945    2.8462    0.0000 C   0  0  0  0  0  0  0  0  0  0  0  0
   -0.6945    3.7949    0.0000 C   0  0  0  0  0  0  0  0  0  0  0  0
   -1.5493    4.2065    0.0000 C   0  0  0  0  0  0  0  0  0  0  0  0
   -1.7604    5.1314    0.0000 C   0  0  0  0  0  0  0  0  0  0  0  0
   -1.1689    5.8732    0.0000 C   0  0  0  0  0  0  0  0  0  0  0  0
   -0.2202    5.8732    0.0000 C   0  0  0  0  0  0  0  0  0  0  0  0
    0.3714    5.1314    0.0000 C   0  0  0  0  0  0  0  0  0  0  0  0
    0.1603    4.2065    0.0000 C   0  0  0  0  0  0  0  0  0  0  0  0
   -1.5161    2.3718    0.0000 C   0  0  0  0  0  0  0  0  0  0  0  0
   -1.5161    1.4231    0.0000 C   0  0  0  0  0  0  0  0  0  0  0  0
   -2.3377    2.8462    0.0000 C   0  0  0  0  0  0  0  0  0  0  0  0
   -2.3377    3.7949    0.0000 C   0  0  0  0  0  0  0  0  0  0  0  0
   -3.1594    4.2692    0.0000 C   0  0  0  0  0  0  0  0  0  0  0  0
   -3.9810    3.7949    0.0000 C   0  0  0  0  0  0  0  0  0  0  0  0
   -4.8026    4.2692    0.0000 O   0  0  0  0  0  0  0  0  0  0  0  0
   -5.6242    3.7949    0.0000 C   0  0  0  0  0  0  0  0  0  0  0  0
   -3.9810    2.8462    0.0000 C   0  0  0  0  0  0  0  0  0  0  0  0
   -3.1594    2.3718    0.0000 C   0  0  0  0  0  0  0  0  0  0  0  0
    0.9487    0.0000    0.0000 P   0  0  0  0  0  0  0  0  0  0  0  0
    1.8974    0.0000    0.0000 C   0  0  0  0  0  0  0  0  0  0  0  0
    2.3718   -0.8216    0.0000 C   0  0  0  0  0  0  0  0  0  0  0  0
    3.3205   -0.8216    0.0000 C   0  0  0  0  0  0  0  0  0  0  0  0
    3.7949    0.0000    0.0000 C   0  0  0  0  0  0  0  0  0  0  0  0
    3.3205    0.8216    0.0000 C   0  0  0  0  0  0  0  0  0  0  0  0
    2.3718    0.8216    0.0000 C   0  0  0  0  0  0  0  0  0  0  0  0
    0.9487   -0.9487    0.0000 O   0  0  0  0  0  0  0  0  0  0  0  0
    0.0000    0.0000    0.0000 C   0  0  0  0  0  0  0  0  0  0  0  0
   -0.4744    0.8216    0.0000 C   0  0  0  0  0  0  0  0  0  0  0  0
   -1.4231    0.8216    0.0000 C   0  0  0  0  0  0  0  0  0  0  0  0
   -1.8974    0.0000    0.0000 C   0  0  0  0  0  0  0  0  0  0  0  0
   -1.4231   -0.8216    0.0000 C   0  0  0  0  0  0  0  0  0  0  0  0
   -0.4744   -0.8216    0.0000 C   0  0  0  0  0  0  0  0  0  0  0  0
  1  2  2  0  0  0  0
  2  3  1  0  0  0  0
  2 21  1  0  0  0  0
  3  4  2  0  0  0  0
  3 11  1  0  0  0  0
  4 10  1  0  0  0  0
  4  5  1  0  0  0  0
  5  6  1  0  0  0  0
  6  7  1  0  0  0  0
  7  8  1  0  0  0  0
  8  9  1  0  0  0  0
  9 10  1  0  0  0  0
 11 12  2  0  0  0  0
 11 13  1  0  0  0  0
 13 20  1  0  0  0  0
 13 14  2  0  0  0  0
 14 15  1  0  0  0  0
 15 16  2  0  0  0  0
 16 17  1  0  0  0  0
 16 19  1  0  0  0  0
 17 18  1  0  0  0  0
 19 20  2  0  0  0  0
 21 22  1  0  0  0  0
 21 28  2  0  0  0  0
 21 29  1  0  0  0  0
 22 27  1  0  0  0  0
 22 23  2  0  0  0  0
 23 24  1  0  0  0  0
 24 25  2  0  0  0  0
 25 26  1  0  0  0  0
 26 27  2  0  0  0  0
 29 34  1  0  0  0  0
 29 30  2  0  0  0  0
 30 31  1  0  0  0  0
 31 32  2  0  0  0  0
 32 33  1  0  0  0  0
 33 34  2  0  0  0  0
M  END
> <NMREDATA_VERSION>
1.1

> <NMREDATA_LEVEL>
0

> <NMREDATA_SOLVENT>
CDCl3

> <NMREDATA_FORMULA>
C31H33O2P

> <NMREDATA_SMILES>
COc1ccc(cc1)C(=C)C(=C1CCCCCC1)C(=C)P(=O)(c1ccccc1)c1ccccc1

> <NMREDATA_ASSIGNMENT>
P21, 28.90, 21

> <NMREDATA_1D_31P>
Larmor=162
28.90, L=P21

$$$$
