
 OpenBabel06112616452D

 28 30  0  0  0  0  0  0  0  0999 V2000
    0.7412    0.9659    0.0000 C    0  0  0  0  0  0  0  0  0  0  0  0
    1.0000    0.0000    0.0000 C    0  0  0  0  0  0  0  0  0  0  0  0
    1.9914   -0.1305    0.0000 C    0  0  0  0  0  0  0  0  0  0  0  0
    1.5000   -0.8660    0.0000 C    0  0  0  0  0  0  0  0  0  0  0  0
    1.0000   -1.7321    0.0000 O    0  0  0  0  0  0  0  0  0  0  0  0
    0.0000   -1.7321    0.0000 P    0  0  0  0  0  0  0  0  0  0  0  0
   -0.8660   -2.2321    0.0000 S    0  0  0  0  0  0  0  0  0  0  0  0
    0.0000   -2.7321    0.0000 O    0  0  0  0  0  0  0  0  0  0  0  0
    0.8660   -3.2321    0.0000 C    0  0  0  0  0  0  0  0  0  0  0  0
    0.8660   -4.2321    0.0000 C    0  0  0  0  0  0  0  0  0  0  0  0
    0.0000   -4.7321    0.0000 S    0  0  0  0  0  0  0  0  0  0  0  0
   -0.8660   -4.2321    0.0000 S    0  0  0  0  0  0  0  0  0  0  0  0
   -1.7321   -4.7321    0.0000 C    0  0  0  0  0  0  0  0  0  0  0  0
   -2.5981   -4.2321    0.0000 C    0  0  0  0  0  0  0  0  0  0  0  0
   -2.5981   -3.2321    0.0000 C    0  0  0  0  0  0  0  0  0  0  0  0
   -3.4641   -2.7321    0.0000 C    0  0  0  0  0  0  0  0  0  0  0  0
   -4.3301   -3.2321    0.0000 C    0  0  0  0  0  0  0  0  0  0  0  0
   -4.3301   -4.2321    0.0000 C    0  0  0  0  0  0  0  0  0  0  0  0
   -3.4641   -4.7321    0.0000 C    0  0  0  0  0  0  0  0  0  0  0  0
    1.7321   -2.7321    0.0000 C    0  0  0  0  0  0  0  0  0  0  0  0
    1.7321   -1.7321    0.0000 C    0  0  0  0  0  0  0  0  0  0  0  0
    2.5981   -1.2321    0.0000 C    0  0  0  0  0  0  0  0  0  0  0  0
    3.4641   -1.7321    0.0000 C    0  0  0  0  0  0  0  0  0  0  0  0
    4.3301   -1.2321    0.0000 Cl   0  0  0  0  0  0  0  0  0  0  0  0
    3.4641   -2.7321    0.0000 C    0  0  0  0  0  0  0  0  0  0  0  0
    2.5981   -3.2321    0.0000 C    0  0  0  0  0  0  0  0  0  0  0  0
   -0.5000   -0.8660    0.0000 O    0  0  0  0  0  0  0  0  0  0  0  0
    0.0000    0.0000    0.0000 C    0  0  0  0  0  0  0  0  0  0  0  0
  1  2  1  0  0  0  0
  2 28  1  0  0  0  0
  2  3  1  0  0  0  0
  2  4  1  0  0  0  0
  4  5  1  0  0  0  0
  5  6  1  0  0  0  0
  6  7  2  0  0  0  0
  6  8  1  0  0  0  0
  6 27  1  0  0  0  0
  8  9  1  0  0  0  0
  9 10  2  0  0  0  0
  9 20  1  0  0  0  0
 10 11  1  0  0  0  0
 11 12  1  0  0  0  0
 12 13  1  0  0  0  0
 13 14  1  0  0  0  0
 14 19  2  0  0  0  0
 14 15  1  0  0  0  0
 15 16  2  0  0  0  0
 16 17  1  0  0  0  0
 17 18  2  0  0  0  0
 18 19  1  0  0  0  0
 20 26  2  0  0  0  0
 20 21  1  0  0  0  0
 21 22  2  0  0  0  0
 22 23  1  0  0  0  0
 23 24  1  0  0  0  0
 23 25  2  0  0  0  0
 25 26  1  0  0  0  0
 27 28  1  0  0  0  0
M  END
> <NMREDATA_VERSION>
1.1

> <NMREDATA_LEVEL>
0

> <NMREDATA_SOLVENT>
CDCl3

> <NMREDATA_FORMULA>
C20H22ClO3PS3

> <NMREDATA_SMILES>
CC1(C)COP(=S)(OC1)O/C(=C\SSCc1ccccc1)/c1ccc(cc1)Cl

> <NMREDATA_ASSIGNMENT>
P6, 55.86, 6

> <NMREDATA_1D_31P>
Larmor=162
55.86, L=P6

$$$$
