
 OpenBabel06112616452D

 18 18  0  0  1  0  0  0  0  0999 V2000
    1.8660   -1.5000    0.0000 C   0  0  0  0  0  0  0  0  0  0  0  0
    1.0000   -1.0000    0.0000 C   0  0  0  0  0  0  0  0  0  0  0  0
    0.0000   -1.0000    0.0000 C   0  0  0  0  0  0  0  0  0  0  0  0
    0.5000   -1.8660    0.0000 C   0  0  0  0  0  0  0  0  0  0  0  0
    1.0000    0.0000    0.0000 P   0  0  3  0  0  0  0  0  0  0  0  0
    2.0000    0.0000    0.0000 C   0  0  0  0  0  0  0  0  0  0  0  0
    2.5000    0.8660    0.0000 C   0  0  0  0  0  0  0  0  0  0  0  0
    3.5000    0.8660    0.0000 C   0  0  0  0  0  0  0  0  0  0  0  0
    4.0000    0.0000    0.0000 C   0  0  0  0  0  0  0  0  0  0  0  0
    3.5000   -0.8660    0.0000 C   0  0  0  0  0  0  0  0  0  0  0  0
    2.5000   -0.8660    0.0000 C   0  0  0  0  0  0  0  0  0  0  0  0
    1.0000    1.0000    0.0000 C   0  0  1  0  0  0  0  0  0  0  0  0
    0.1340    1.5000    0.0000 C   0  0  0  0  0  0  0  0  0  0  0  0
   -0.3660    2.3660    0.0000 C   0  0  0  0  0  0  0  0  0  0  0  0
    0.6340    2.3660    0.0000 C   0  0  0  0  0  0  0  0  0  0  0  0
   -0.7321    1.0000    0.0000 C   0  0  0  0  0  0  0  0  0  0  0  0
    1.8660    1.5000    0.0000 O   0  0  0  0  0  0  0  0  0  0  0  0
    0.0000    0.0000    0.0000 O   0  0  0  0  0  0  0  0  0  0  0  0
  1  2  1  0  0  0  0
  2  3  1  0  0  0  0
  2  4  1  0  0  0  0
  2  5  1  0  0  0  0
  5  6  1  0  0  0  0
  5 12  1  0  0  0  0
  5 18  2  0  0  0  0
  6 11  2  0  0  0  0
  6  7  1  0  0  0  0
  7  8  2  0  0  0  0
  8  9  1  0  0  0  0
  9 10  2  0  0  0  0
 10 11  1  0  0  0  0
 12 13  1  0  0  0  0
 12 17  1  1  0  0  0
 13 14  1  0  0  0  0
 13 15  1  0  0  0  0
 13 16  1  0  0  0  0
M  END
> <NMREDATA_VERSION>
1.1

> <NMREDATA_LEVEL>
0

> <NMREDATA_SOLVENT>
CD3OD

> <NMREDATA_FORMULA>
C15H25O2P

> <NMREDATA_SMILES>
O[C@@H](P(=O)(C(C)(C)C)c1ccccc1)C(C)(C)C

> <NMREDATA_ASSIGNMENT>
P5, 44.90, 5

> <NMREDATA_1D_31P>
Larmor=162
44.90, L=P5

$$$$
