
 OpenBabel06112616452D

 31 33  0  0  0  0  0  0  0  0999 V2000
   -0.9706   -2.6517    0.0000 C   0  0  0  0  0  0  0  0  0  0  0  0
   -1.4559   -1.8111    0.0000 C   0  0  0  0  0  0  0  0  0  0  0  0
   -0.9706   -0.9706    0.0000 C   0  0  0  0  0  0  0  0  0  0  0  0
    0.0000   -0.9706    0.0000 P   0  0  1  0  0  0  0  0  0  0  0  0
    0.0000   -1.9412    0.0000 O   0  0  0  0  0  0  0  0  0  0  0  0
    1.9412   -0.9706    0.0000 C   0  0  0  0  0  0  0  0  0  0  0  0
    2.4265   -0.1300    0.0000 C   0  0  0  0  0  0  0  0  0  0  0  0
    1.9412    0.7105    0.0000 C   0  0  0  0  0  0  0  0  0  0  0  0
    3.3971   -0.1300    0.0000 C   0  0  0  0  0  0  0  0  0  0  0  0
    3.8824   -0.9706    0.0000 C   0  0  0  0  0  0  0  0  0  0  0  0
    4.8529   -0.9706    0.0000 C   0  0  0  0  0  0  0  0  0  0  0  0
    3.3971   -1.8111    0.0000 C   0  0  0  0  0  0  0  0  0  0  0  0
    2.4265   -1.8111    0.0000 C   0  0  0  0  0  0  0  0  0  0  0  0
    1.9412   -2.6517    0.0000 C   0  0  0  0  0  0  0  0  0  0  0  0
    0.0000    0.0000    0.0000 C   0  0  0  0  0  0  0  0  0  0  0  0
   -0.8406    0.4853    0.0000 C   0  0  0  0  0  0  0  0  0  0  0  0
   -0.8406    1.4559    0.0000 C   0  0  0  0  0  0  0  0  0  0  0  0
    0.0000    1.9412    0.0000 C   0  0  0  0  0  0  0  0  0  0  0  0
    0.0000    2.9118    0.0000 C   0  0  0  0  0  0  0  0  0  0  0  0
    0.8406    1.4559    0.0000 C   0  0  0  0  0  0  0  0  0  0  0  0
    0.8406    0.4853    0.0000 C   0  0  0  0  0  0  0  0  0  0  0  0
   -2.4265   -1.8111    0.0000 C   0  0  0  0  0  0  0  0  0  0  0  0
   -2.9118   -0.9706    0.0000 O   0  0  0  0  0  0  0  0  0  0  0  0
   -2.9118   -2.6517    0.0000 O   0  0  0  0  0  0  0  0  0  0  0  0
   -3.8824   -2.6517    0.0000 C   0  0  0  0  0  0  0  0  0  0  0  0
   -4.3676   -3.4923    0.0000 C   0  0  0  0  0  0  0  0  0  0  0  0
   -3.8824   -4.3328    0.0000 C   0  0  0  0  0  0  0  0  0  0  0  0
   -4.3676   -5.1734    0.0000 C   0  0  0  0  0  0  0  0  0  0  0  0
   -5.3382   -5.1734    0.0000 C   0  0  0  0  0  0  0  0  0  0  0  0
   -5.8235   -4.3328    0.0000 C   0  0  0  0  0  0  0  0  0  0  0  0
   -5.3382   -3.4923    0.0000 C   0  0  0  0  0  0  0  0  0  0  0  0
  1  2  2  0  0  0  0
  2  3  1  0  0  0  0
  2 22  1  0  0  0  0
  3  4  1  0  0  0  0
  4  5  2  1  0  0  0
  4  6  1  0  0  0  0
  4 15  1  0  0  0  0
  6 13  1  0  0  0  0
  6  7  2  0  0  0  0
  7  8  1  0  0  0  0
  7  9  1  0  0  0  0
  9 10  2  0  0  0  0
 10 11  1  0  0  0  0
 10 12  1  0  0  0  0
 12 13  2  0  0  0  0
 13 14  1  0  0  0  0
 15 21  1  0  0  0  0
 15 16  2  0  0  0  0
 16 17  1  0  0  0  0
 17 18  2  0  0  0  0
 18 19  1  0  0  0  0
 18 20  1  0  0  0  0
 20 21  2  0  0  0  0
 22 23  2  0  0  0  0
 22 24  1  0  0  0  0
 24 25  1  0  0  0  0
 25 26  1  0  0  0  0
 26 31  1  0  0  0  0
 26 27  2  0  0  0  0
 27 28  1  0  0  0  0
 28 29  2  0  0  0  0
 29 30  1  0  0  0  0
 30 31  2  0  0  0  0
M  END
> <NMREDATA_VERSION>
1.1

> <NMREDATA_LEVEL>
0

> <NMREDATA_SOLVENT>
CDCl3

> <NMREDATA_FORMULA>
C27H29O3P

> <NMREDATA_SMILES>
Cc1ccc(cc1)[P@](=O)(c1c(C)cc(cc1C)C)CC(=C)C(=O)OCc1ccccc1

> <NMREDATA_ASSIGNMENT>
P4, 33.67, 4

> <NMREDATA_1D_31P>
Larmor=162
33.67, L=P4

$$$$
