
 OpenBabel06112616442D

 27 30  0  0  0  0  0  0  0  0999 V2000
   -7.0862   -0.9331    0.0000 C   0  0  0  0  0  0  0  0  0  0  0  0
   -6.1352   -1.2421    0.0000 C   0  0  0  0  0  0  0  0  0  0  0  0
   -5.3920   -0.5729    0.0000 C   0  0  0  0  0  0  0  0  0  0  0  0
   -4.4410   -0.8820    0.0000 C   0  0  0  0  0  0  0  0  0  0  0  0
   -3.6978   -0.2128    0.0000 C   0  0  0  0  0  0  0  0  0  0  0  0
   -4.2330   -1.8601    0.0000 C   0  0  0  0  0  0  0  0  0  0  0  0
   -3.2820   -2.1691    0.0000 C   0  0  0  0  0  0  0  0  0  0  0  0
   -2.5388   -1.5000    0.0000 C   0  0  0  0  0  0  0  0  0  0  0  0
   -2.5388   -0.5000    0.0000 C   0  0  0  0  0  0  0  0  0  0  0  0
   -1.5878   -0.1910    0.0000 C   0  0  0  0  0  0  0  0  0  0  0  0
   -1.0000   -1.0000    0.0000 C   0  0  0  0  0  0  0  0  0  0  0  0
    0.0000   -1.0000    0.0000 P   0  0  0  0  0  0  0  0  0  0  0  0
    0.0000   -2.0000    0.0000 O   0  0  0  0  0  0  0  0  0  0  0  0
    1.0000   -1.0000    0.0000 O   0  0  0  0  0  0  0  0  0  0  0  0
    0.0000    0.0000    0.0000 O   0  0  0  0  0  0  0  0  0  0  0  0
   -1.5878   -1.8090    0.0000 N   0  3  0  0  0  0  0  0  0  0  0  0
   -1.3799   -2.7872    0.0000 B   0  5  0  0  0  0  0  0  0  0  0  0
   -0.7107   -3.5303    0.0000 F   0  0  0  0  0  0  0  0  0  0  0  0
   -0.4017   -2.5793    0.0000 F   0  0  0  0  0  0  0  0  0  0  0  0
   -2.1230   -3.4563    0.0000 N   0  0  0  0  0  0  0  0  0  0  0  0
   -2.1230   -4.4563    0.0000 C   0  0  0  0  0  0  0  0  0  0  0  0
   -3.0741   -4.7653    0.0000 C   0  0  0  0  0  0  0  0  0  0  0  0
   -3.6619   -3.9563    0.0000 C   0  0  0  0  0  0  0  0  0  0  0  0
   -3.0741   -3.1473    0.0000 C   0  0  0  0  0  0  0  0  0  0  0  0
   -4.9762   -2.5292    0.0000 C   0  0  0  0  0  0  0  0  0  0  0  0
   -4.7683   -3.5074    0.0000 C   0  0  0  0  0  0  0  0  0  0  0  0
   -5.9272   -2.2202    0.0000 C   0  0  0  0  0  0  0  0  0  0  0  0
  1  2  1  0  0  0  0
  2 27  2  0  0  0  0
  2  3  1  0  0  0  0
  3  4  2  0  0  0  0
  4  5  1  0  0  0  0
  4  6  1  0  0  0  0
  6  7  1  0  0  0  0
  6 25  2  0  0  0  0
  7 24  1  0  0  0  0
  7  8  2  0  0  0  0
  8 16  1  0  0  0  0
  8  9  1  0  0  0  0
  9 10  2  0  0  0  0
 10 11  1  0  0  0  0
 11 12  1  0  0  0  0
 11 16  2  0  0  0  0
 12 13  2  0  0  0  0
 12 14  1  0  0  0  0
 12 15  1  0  0  0  0
 16 17  1  0  0  0  0
 17 18  1  0  0  0  0
 17 19  1  0  0  0  0
 17 20  1  0  0  0  0
 20 24  1  0  0  0  0
 20 21  1  0  0  0  0
 21 22  2  0  0  0  0
 22 23  1  0  0  0  0
 23 24  2  0  0  0  0
 25 26  1  0  0  0  0
 25 27  1  0  0  0  0
M  END
> <NMREDATA_VERSION>
1.1

> <NMREDATA_LEVEL>
0

> <NMREDATA_SOLVENT>
D2O

> <NMREDATA_FORMULA>
C18H18BF2N2O3P

> <NMREDATA_SMILES>
Cc1cc(C)c(c(c1)C)C1=C2C=CC(=[N+]2[B-](n2c1ccc2)(F)F)P(=O)(O)O

> <NMREDATA_ASSIGNMENT>
P12, 1.09, 12

> <NMREDATA_1D_31P>
Larmor=162
1.09, L=P12

$$$$
