
 OpenBabel06112616482D

 47 52  0  0  1  0  0  0  0  0999 V2000
    2.4590    0.8518    0.0000 C   0  0  0  0  0  0  0  0  0  0  0  0
    2.9506    1.7035    0.0000 C   0  0  0  0  0  0  0  0  0  0  0  0
    3.8490    1.3037    0.0000 O   0  0  0  0  0  0  0  0  0  0  0  0
    2.8476    2.6815    0.0000 O   0  0  0  0  0  0  0  0  0  0  0  0
    3.6431    3.2597    0.0000 C   0  0  0  0  0  0  0  0  0  0  0  0
    1.9672    1.7034    0.0000 C   0  0  0  0  0  0  0  0  0  0  0  0
    1.0689    1.3032    0.0000 O   0  0  0  0  0  0  0  0  0  0  0  0
    2.0698    2.6814    0.0000 O   0  0  0  0  0  0  0  0  0  0  0  0
    1.2741    3.2592    0.0000 C   0  0  0  0  0  0  0  0  0  0  0  0
    1.4750    0.8517    0.0000 C   0  0  0  0  0  0  0  0  0  0  0  0
    0.9834    0.0000    0.0000 C   0  0  0  0  0  0  0  0  0  0  0  0
    0.0000    0.0000    0.0000 P   0  0  0  0  0  0  0  0  0  0  0  0
   -0.1028   -0.9780    0.0000 O   0  0  0  0  0  0  0  0  0  0  0  0
   -0.9780    0.1028    0.0000 C   0  0  0  0  0  0  0  0  0  0  0  0
   -1.3780    1.0012    0.0000 C   0  0  0  0  0  0  0  0  0  0  0  0
   -2.3560    1.1040    0.0000 C   0  0  0  0  0  0  0  0  0  0  0  0
   -2.9340    0.3084    0.0000 C   0  0  0  0  0  0  0  0  0  0  0  0
   -2.5340   -0.5900    0.0000 C   0  0  0  0  0  0  0  0  0  0  0  0
   -1.5560   -0.6928    0.0000 C   0  0  0  0  0  0  0  0  0  0  0  0
    0.1028    0.9780    0.0000 C   0  0  0  0  0  0  0  0  0  0  0  0
   -0.6928    1.5560    0.0000 C   0  0  0  0  0  0  0  0  0  0  0  0
   -0.5900    2.5340    0.0000 C   0  0  0  0  0  0  0  0  0  0  0  0
    0.3084    2.9340    0.0000 C   0  0  0  0  0  0  0  0  0  0  0  0
    1.1040    2.3560    0.0000 C   0  0  0  0  0  0  0  0  0  0  0  0
    0.1028    2.0307    0.0000 C   0  0  0  0  0  0  0  0  0  0  0  0
    1.4753   -0.8521    0.0000 C   0  0  0  0  0  0  0  0  0  0  0  0
    2.4593   -0.8519    0.0000 C   0  0  0  0  0  0  0  0  0  0  0  0
    2.9509    0.0003    0.0000 C   0  0  0  0  0  0  0  0  0  0  0  0
    2.9511   -1.7035    0.0000 C   0  0  3  0  0  0  0  0  0  0  0  0
    3.9345   -1.7032    0.0000 C   0  0  0  0  0  0  0  0  0  0  0  0
    4.5923   -0.9723    0.0000 C   0  0  0  0  0  0  0  0  0  0  0  0
    5.5543   -1.1765    0.0000 C   0  0  0  0  0  0  0  0  0  0  0  0
    5.8584   -2.1116    0.0000 C   0  0  0  0  0  0  0  0  0  0  0  0
    6.8204   -2.3159    0.0000 C   0  0  0  0  0  0  0  0  0  0  0  0
    7.1245   -3.2510    0.0000 C   0  0  0  0  0  0  0  0  0  0  0  0
    7.4782   -1.5849    0.0000 O   0  0  0  0  0  0  0  0  0  0  0  0
    5.2006   -2.8426    0.0000 C   0  0  0  0  0  0  0  0  0  0  0  0
    4.2386   -2.6384    0.0000 C   0  0  0  0  0  0  0  0  0  0  0  0
    2.4595   -2.5557    0.0000 C   0  0  0  0  0  0  0  0  0  0  0  0
    2.9513   -3.4077    0.0000 C   0  0  0  0  0  0  0  0  0  0  0  0
    2.4597   -4.2594    0.0000 C   0  0  0  0  0  0  0  0  0  0  0  0
    1.4757   -4.2595    0.0000 C   0  0  0  0  0  0  0  0  0  0  0  0
    0.9841   -5.1113    0.0000 C   0  0  0  0  0  0  0  0  0  0  0  0
    0.0007   -5.1114    0.0000 C   0  0  0  0  0  0  0  0  0  0  0  0
    1.4760   -5.9628    0.0000 O   0  0  0  0  0  0  0  0  0  0  0  0
    0.9838   -3.4080    0.0000 C   0  0  0  0  0  0  0  0  0  0  0  0
    1.4755   -2.5558    0.0000 C   0  0  0  0  0  0  0  0  0  0  0  0
  1 28  1  0  0  0  0
  1  2  1  0  0  0  0
  1  6  1  0  0  0  0
  1 10  1  0  0  0  0
  2  3  2  0  0  0  0
  2  4  1  0  0  0  0
  4  5  1  0  0  0  0
  6  7  2  0  0  0  0
  6  8  1  0  0  0  0
  8  9  1  0  0  0  0
 10 11  2  0  0  0  0
 11 12  1  0  0  0  0
 11 26  1  0  0  0  0
 12 13  2  0  0  0  0
 12 14  1  0  0  0  0
 12 20  1  0  0  0  0
 14 19  2  0  0  0  0
 14 15  1  0  0  0  0
 15 16  2  0  0  0  0
 16 17  1  0  0  0  0
 17 18  2  0  0  0  0
 18 19  1  0  0  0  0
 20 25  2  0  0  0  0
 20 21  1  0  0  0  0
 21 22  2  0  0  0  0
 22 23  1  0  0  0  0
 23 24  2  0  0  0  0
 24 25  1  0  0  0  0
 26 47  1  0  0  0  0
 26 27  2  0  0  0  0
 27 28  1  0  0  0  0
 27 29  1  0  0  0  0
 29 30  1  0  0  0  0
 29 39  1  0  0  0  0
 30 38  2  0  0  0  0
 30 31  1  0  0  0  0
 31 32  2  0  0  0  0
 32 33  1  0  0  0  0
 33 34  1  0  0  0  0
 33 37  2  0  0  0  0
 34 35  1  0  0  0  0
 34 36  2  0  0  0  0
 37 38  1  0  0  0  0
 39 47  2  0  0  0  0
 39 40  1  0  0  0  0
 40 41  2  0  0  0  0
 41 42  1  0  0  0  0
 42 43  1  0  0  0  0
 42 46  2  0  0  0  0
 43 44  1  0  0  0  0
 43 45  2  0  0  0  0
 46 47  1  0  0  0  0
M  END
> <NMREDATA_VERSION>
1.1

> <NMREDATA_LEVEL>
0

> <NMREDATA_SOLVENT>
CDCl3

> <NMREDATA_FORMULA>
C39H33O7P

> <NMREDATA_SMILES>
COC(=O)C1(CC2=C(C(=C1)P(=O)(c1ccccc1)c1ccccc1)c1c(C2c2ccc(cc2)C(=O)C)ccc(c1)C(=O)C)C(=O)OC

> <NMREDATA_ASSIGNMENT>
P12, 29.15, 12

> <NMREDATA_1D_31P>
Larmor=162
29.15, L=P12

$$$$
