
 OpenBabel06112616492D

 22 25  0  0  0  0  0  0  0  0999 V2000
   -0.8014   -0.4636    0.0000 C   0  0  0  0  0  0  0  0  0  0  0  0
   -1.6019    0.0015    0.0000 C   0  0  0  0  0  0  0  0  0  0  0  0
   -2.2916   -0.6162    0.0000 C   0  0  0  0  0  0  0  0  0  0  0  0
   -3.1713   -0.3278    0.0000 C   0  0  0  0  0  0  0  0  0  0  0  0
   -3.3614    0.5783    0.0000 C   0  0  0  0  0  0  0  0  0  0  0  0
   -2.6717    1.1960    0.0000 C   0  0  0  0  0  0  0  0  0  0  0  0
   -1.7920    0.9076    0.0000 C   0  0  0  0  0  0  0  0  0  0  0  0
   -0.8072   -1.4001    0.0000 C   0  0  0  0  0  0  0  0  0  0  0  0
   -0.8130   -2.3369    0.0000 C   0  0  0  0  0  0  0  0  0  0  0  0
    0.0074   -2.8105    0.0000 C   0  0  0  0  0  0  0  0  0  0  0  0
    0.8087   -2.3469    0.0000 C   0  0  0  0  0  0  0  0  0  0  0  0
    0.8145   -1.4101    0.0000 C   0  0  0  0  0  0  0  0  0  0  0  0
    0.8203   -0.4736    0.0000 C   0  0  0  0  0  0  0  0  0  0  0  0
    2.5116    0.4959    0.0000 I   0  0  0  0  0  0  0  0  0  0  0  0
    0.0000    0.0000    0.0000 P   0  0  3  0  0  0  0  0  0  0  0  0
   -0.0004    0.9747    0.0000 O   0  0  0  0  0  0  0  0  0  0  0  0
    0.8014    0.4636    0.0000 C   0  0  0  0  0  0  0  0  0  0  0  0
    0.4241    1.3090    0.0000 C   0  0  0  0  0  0  0  0  0  0  0  0
    0.9677    2.0585    0.0000 C   0  0  0  0  0  0  0  0  0  0  0  0
    1.8885    1.9625    0.0000 C   0  0  0  0  0  0  0  0  0  0  0  0
    2.2658    1.1171    0.0000 C   0  0  0  0  0  0  0  0  0  0  0  0
    1.7222    0.3676    0.0000 C   0  0  0  0  0  0  0  0  0  0  0  0
  1 15  1  0  0  0  0
  1  2  1  0  0  0  0
  1  8  2  0  0  0  0
  2  7  2  0  0  0  0
  2  3  1  0  0  0  0
  3  4  2  0  0  0  0
  4  5  1  0  0  0  0
  5  6  2  0  0  0  0
  6  7  1  0  0  0  0
  8 12  1  0  0  0  0
  8  9  1  0  0  0  0
  9 10  1  0  0  0  0
 10 11  1  0  0  0  0
 11 12  1  0  0  0  0
 12 13  2  0  0  0  0
 13 14  1  0  0  0  0
 13 15  1  0  0  0  0
 15 16  2  0  0  0  0
 15 17  1  0  0  0  0
 17 22  2  0  0  0  0
 17 18  1  0  0  0  0
 18 19  2  0  0  0  0
 19 20  1  0  0  0  0
 20 21  2  0  0  0  0
 21 22  1  0  0  0  0
M  END
> <NMREDATA_VERSION>
1.1

> <NMREDATA_LEVEL>
0

> <NMREDATA_SOLVENT>
CD2Cl2

> <NMREDATA_FORMULA>
C19H16IOP

> <NMREDATA_SMILES>
IC1=C2CCCC2=C(P1(=O)c1ccccc1)c1ccccc1

> <NMREDATA_ASSIGNMENT>
P15, 51.50, 15

> <NMREDATA_1D_31P>
Larmor=162
51.50, L=P15

$$$$
