
 OpenBabel06112616432D

 46 53  0  0  1  0  0  0  0  0999 V2000
    0.8175    1.4160    0.0000 C   0  0  0  0  0  0  0  0  0  0  0  0
    0.8175    0.4720    0.0000 C   0  0  0  0  0  0  0  0  0  0  0  0
    1.6350    0.0000    0.0000 C   0  0  0  0  0  0  0  0  0  0  0  0
    1.6350   -0.9440    0.0000 C   0  0  0  0  0  0  0  0  0  0  0  0
    0.8175   -1.4160    0.0000 C   0  0  0  0  0  0  0  0  0  0  0  0
    0.8175   -2.3600    0.0000 P   0  0  0  0  0  0  0  0  0  0  0  0
    0.0000   -2.8320    0.0000 C   0  0  0  0  0  0  0  0  0  0  0  0
    0.0000   -3.7760    0.0000 C   0  0  0  0  0  0  0  0  0  0  0  0
   -0.8175   -4.2480    0.0000 C   0  0  0  0  0  0  0  0  0  0  0  0
   -1.6350   -3.7760    0.0000 C   0  0  0  0  0  0  0  0  0  0  0  0
   -2.4526   -4.2480    0.0000 C   0  0  0  0  0  0  0  0  0  0  0  0
   -1.6350   -2.8320    0.0000 C   0  0  0  0  0  0  0  0  0  0  0  0
   -0.8175   -2.3600    0.0000 C   0  0  0  0  0  0  0  0  0  0  0  0
    4.0876   -4.2480    0.0000 C   0  0  0  0  0  0  0  0  0  0  0  0
    4.0876   -5.1920    0.0000 C   0  0  0  0  0  0  0  0  0  0  0  0
    4.9051   -5.6640    0.0000 C   0  0  0  0  0  0  0  0  0  0  0  0
    5.7227   -5.1920    0.0000 C   0  0  0  0  0  0  0  0  0  0  0  0
    6.5402   -5.6640    0.0000 C   0  0  0  0  0  0  0  0  0  0  0  0
    7.3577   -5.1920    0.0000 C   0  0  0  0  0  0  0  0  0  0  0  0
    7.3577   -4.2480    0.0000 C   0  0  0  0  0  0  0  0  0  0  0  0
    6.5402   -3.7760    0.0000 C   0  0  0  0  0  0  0  0  0  0  0  0
    5.7227   -4.2480    0.0000 C   0  0  0  0  0  0  0  0  0  0  0  0
    4.9051   -3.7760    0.0000 C   0  0  0  0  0  0  0  0  0  0  0  0
    4.9051   -2.8320    0.0000 C   0  0  0  0  0  0  0  0  0  0  0  0
    4.2451   -2.5586    0.0000 N   0  0  0  0  0  0  0  0  0  0  0  0
    3.9717   -1.8986    0.0000 C   0  0  0  0  0  0  0  0  0  0  0  0
    3.2634   -1.9918    0.0000 C   0  0  0  0  0  0  0  0  0  0  0  0
    2.8285   -1.4250    0.0000 C   0  0  0  0  0  0  0  0  0  0  0  0
    3.1019   -0.7650    0.0000 C   0  0  0  0  0  0  0  0  0  0  0  0
    3.8102   -0.6717    0.0000 C   0  0  0  0  0  0  0  0  0  0  0  0
    4.2451   -1.2385    0.0000 C   0  0  0  0  0  0  0  0  0  0  0  0
    4.9051   -0.9651    0.0000 C   0  0  0  0  0  0  0  0  0  0  0  0
    5.1255   -0.0472    0.0000 C   0  0  0  0  0  0  0  0  0  0  0  0
    6.0306    0.2209    0.0000 C   0  0  0  0  0  0  0  0  0  0  0  0
    6.7154   -0.4289    0.0000 C   0  0  0  0  0  0  0  0  0  0  0  0
    6.4950   -1.3468    0.0000 C   0  0  0  0  0  0  0  0  0  0  0  0
    5.5899   -1.6149    0.0000 C   0  0  0  0  0  0  0  0  0  0  0  0
    5.5652   -2.5586    0.0000 C   0  0  0  0  0  0  0  0  0  0  0  0
    6.4550   -2.8737    0.0000 C   0  0  0  0  0  0  0  0  0  0  0  0
    7.0297   -2.1248    0.0000 N   0  0  0  0  0  0  0  0  0  0  0  0
    7.9734   -2.1495    0.0000 C   0  0  1  0  0  0  0  0  0  0  0  0
    8.4666   -1.3446    0.0000 C   0  0  0  0  0  0  0  0  0  0  0  0
    8.4238   -2.9791    0.0000 C   0  0  0  0  0  0  0  0  0  0  0  0
    9.3675   -3.0038    0.0000 O   0  0  0  0  0  0  0  0  0  0  0  0
    0.0000   -0.9440    0.0000 C   0  0  0  0  0  0  0  0  0  0  0  0
    0.0000    0.0000    0.0000 C   0  0  0  0  0  0  0  0  0  0  0  0
  1  2  1  0  0  0  0
  2 46  2  0  0  0  0
  2  3  1  0  0  0  0
  3  4  2  0  0  0  0
  4  5  1  0  0  0  0
  5  6  1  0  0  0  0
  5 45  2  0  0  0  0
  6  7  1  0  0  0  0
  6 14  1  0  0  0  0
  7 13  2  0  0  0  0
  7  8  1  0  0  0  0
  8  9  2  0  0  0  0
  9 10  1  0  0  0  0
 10 11  1  0  0  0  0
 10 12  2  0  0  0  0
 12 13  1  0  0  0  0
 14 23  2  0  0  0  0
 14 15  1  0  0  0  0
 15 16  2  0  0  0  0
 16 17  1  0  0  0  0
 17 22  2  0  0  0  0
 17 18  1  0  0  0  0
 18 19  2  0  0  0  0
 19 20  1  0  0  0  0
 20 21  2  0  0  0  0
 21 22  1  0  0  0  0
 22 23  1  0  0  0  0
 23 24  1  0  0  0  0
 24 38  1  0  0  0  0
 24 25  2  0  0  0  0
 25 26  1  0  0  0  0
 26 31  2  0  0  0  0
 26 27  1  0  0  0  0
 27 28  2  0  0  0  0
 28 29  1  0  0  0  0
 29 30  2  0  0  0  0
 30 31  1  0  0  0  0
 31 32  1  0  0  0  0
 32 37  2  0  0  0  0
 32 33  1  0  0  0  0
 33 34  2  0  0  0  0
 34 35  1  0  0  0  0
 35 36  2  0  0  0  0
 36 40  1  0  0  0  0
 36 37  1  0  0  0  0
 37 38  1  0  0  0  0
 38 39  2  0  0  0  0
 39 40  1  0  0  0  0
 40 41  1  0  0  0  0
 41 42  1  1  0  0  0
 41 43  1  0  0  0  0
 43 44  1  0  0  0  0
 45 46  1  0  0  0  0
M  END
> <NMREDATA_VERSION>
1.1

> <NMREDATA_LEVEL>
0

> <NMREDATA_SOLVENT>
DMSO-d6

> <NMREDATA_FORMULA>
C42H35N2OP

> <NMREDATA_SMILES>
OC[C@@H](n1cc2c3c1cccc3-c1c(N=C2c2c(ccc3c2cccc3)P(c2ccc(cc2)C)c2ccc(cc2)C)cccc1)C

> <NMREDATA_ASSIGNMENT>
P6, -10.90, 6

> <NMREDATA_1D_31P>
Larmor=162
-10.90, L=P6

$$$$
