
 OpenBabel06112616482D

 27 29  0  0  1  0  0  0  0  0999 V2000
   -0.8660   -0.5000    0.0000 C    0  0  2  0  0  0  0  0  0  0  0  0
   -0.8660   -1.5000    0.0000 C    0  0  0  0  0  0  0  0  0  0  0  0
   -1.7321   -2.0000    0.0000 C    0  0  0  0  0  0  0  0  0  0  0  0
    0.0000   -2.0000    0.0000 C    0  0  0  0  0  0  0  0  0  0  0  0
   -1.7321    0.0000    0.0000 C    0  0  0  0  0  0  0  0  0  0  0  0
   -1.7321    1.0000    0.0000 C    0  0  0  0  0  0  0  0  0  0  0  0
   -0.8660    1.5000    0.0000 C    0  0  2  0  0  0  0  0  0  0  0  0
   -1.8605    1.6045    0.0000 C    0  0  0  0  0  0  0  0  0  0  0  0
   -0.6581    2.4781    0.0000 O    0  0  0  0  0  0  0  0  0  0  0  0
    0.3364    2.5827    0.0000 P    0  0  1  0  0  0  0  0  0  0  0  0
    1.2024    3.0827    0.0000 S    0  0  0  0  0  0  0  0  0  0  0  0
    0.3364    3.5827    0.0000 C    0  0  0  0  0  0  0  0  0  0  0  0
   -0.5296    4.0827    0.0000 C    0  0  0  0  0  0  0  0  0  0  0  0
   -1.3956    3.5827    0.0000 C    0  0  0  0  0  0  0  0  0  0  0  0
   -2.2617    4.0827    0.0000 C    0  0  0  0  0  0  0  0  0  0  0  0
   -3.1277    3.5827    0.0000 C    0  0  0  0  0  0  0  0  0  0  0  0
   -3.9937    4.0827    0.0000 O    0  0  0  0  0  0  0  0  0  0  0  0
   -4.8597    3.5827    0.0000 C    0  0  0  0  0  0  0  0  0  0  0  0
   -4.8597    2.5827    0.0000 C    0  0  0  0  0  0  0  0  0  0  0  0
   -5.7258    2.0827    0.0000 C    0  0  0  0  0  0  0  0  0  0  0  0
   -6.5918    2.5827    0.0000 C    0  0  0  0  0  0  0  0  0  0  0  0
   -7.4578    2.0827    0.0000 Br   0  0  0  0  0  0  0  0  0  0  0  0
   -6.5918    3.5827    0.0000 C    0  0  0  0  0  0  0  0  0  0  0  0
   -5.7258    4.0827    0.0000 C    0  0  0  0  0  0  0  0  0  0  0  0
    0.7431    1.6691    0.0000 S    0  0  0  0  0  0  0  0  0  0  0  0
    0.0000    1.0000    0.0000 C    0  0  1  0  0  0  0  0  0  0  0  0
    0.0000    0.0000    0.0000 C    0  0  0  0  0  0  0  0  0  0  0  0
  1  2  1  6  0  0  0
  1 27  1  0  0  0  0
  1  5  1  0  0  0  0
  2  3  1  0  0  0  0
  2  4  1  0  0  0  0
  5  6  1  0  0  0  0
  6  7  1  0  0  0  0
  7 26  1  0  0  0  0
  7  8  1  1  0  0  0
  7  9  1  0  0  0  0
  9 10  1  0  0  0  0
 10 11  2  6  0  0  0
 10 12  1  0  0  0  0
 10 25  1  0  0  0  0
 12 13  1  0  0  0  0
 13 14  1  0  0  0  0
 14 15  1  0  0  0  0
 15 16  1  0  0  0  0
 16 17  1  0  0  0  0
 17 18  1  0  0  0  0
 18 24  2  0  0  0  0
 18 19  1  0  0  0  0
 19 20  2  0  0  0  0
 20 21  1  0  0  0  0
 21 22  1  0  0  0  0
 21 23  2  0  0  0  0
 23 24  1  0  0  0  0
 25 26  1  0  0  0  0
 26 27  1  1  0  0  0
M  END
> <NMREDATA_VERSION>
1.1

> <NMREDATA_LEVEL>
0

> <NMREDATA_SOLVENT>
CDCl3

> <NMREDATA_FORMULA>
C21H32BrO2PS2

> <NMREDATA_SMILES>
Brc1ccc(cc1)OCCCCC[P@@]1(=S)S[C@@H]2[C@](O1)(C)CC[C@H](C2)C(C)C

> <NMREDATA_ASSIGNMENT>
P10, 112.90, 10

> <NMREDATA_1D_31P>
Larmor=162
112.90, L=P10

$$$$
