
 OpenBabel06112616452D

 33 37  0  0  0  0  0  0  0  0999 V2000
    3.5032   -1.9479    0.0000 C    0  0  0  0  0  0  0  0  0  0  0  0
    2.7601   -1.2788    0.0000 C    0  0  0  0  0  0  0  0  0  0  0  0
    2.9680   -0.3006    0.0000 C    0  0  0  0  0  0  0  0  0  0  0  0
    3.9190    0.0084    0.0000 F    0  0  0  0  0  0  0  0  0  0  0  0
    1.8090   -1.5878    0.0000 C    0  0  0  0  0  0  0  0  0  0  0  0
    1.0000   -1.0000    0.0000 C    0  0  0  0  0  0  0  0  0  0  0  0
    1.0000    0.0000    0.0000 P    0  0  3  0  0  0  0  0  0  0  0  0
    2.0000    0.0000    0.0000 O    0  0  0  0  0  0  0  0  0  0  0  0
    1.0000    1.0000    0.0000 C    0  0  0  0  0  0  0  0  0  0  0  0
    0.1340    1.5000    0.0000 C    0  0  0  0  0  0  0  0  0  0  0  0
    0.1340    2.5000    0.0000 C    0  0  0  0  0  0  0  0  0  0  0  0
    1.0000    3.0000    0.0000 C    0  0  0  0  0  0  0  0  0  0  0  0
    1.8660    2.5000    0.0000 C    0  0  0  0  0  0  0  0  0  0  0  0
    1.8660    1.5000    0.0000 C    0  0  0  0  0  0  0  0  0  0  0  0
    0.0000    0.0000    0.0000 C    0  0  0  0  0  0  0  0  0  0  0  0
   -0.5000   -0.8660    0.0000 C    0  0  0  0  0  0  0  0  0  0  0  0
   -1.5000   -0.8660    0.0000 C    0  0  0  0  0  0  0  0  0  0  0  0
   -2.0000    0.0000    0.0000 C    0  0  0  0  0  0  0  0  0  0  0  0
   -3.0000    0.0000    0.0000 Cl   0  0  0  0  0  0  0  0  0  0  0  0
   -1.5000    0.8660    0.0000 C    0  0  0  0  0  0  0  0  0  0  0  0
   -0.5000    0.8660    0.0000 C    0  0  0  0  0  0  0  0  0  0  0  0
    0.1910   -1.5878    0.0000 N    0  0  0  0  0  0  0  0  0  0  0  0
    0.5000   -2.5388    0.0000 C    0  0  0  0  0  0  0  0  0  0  0  0
    0.0000   -3.4049    0.0000 C    0  0  0  0  0  0  0  0  0  0  0  0
    0.5000   -4.2709    0.0000 C    0  0  0  0  0  0  0  0  0  0  0  0
    1.5000   -4.2709    0.0000 C    0  0  0  0  0  0  0  0  0  0  0  0
    2.0000   -3.4049    0.0000 C    0  0  0  0  0  0  0  0  0  0  0  0
    1.5000   -2.5388    0.0000 C    0  0  0  0  0  0  0  0  0  0  0  0
    4.4543   -1.6389    0.0000 C    0  0  0  0  0  0  0  0  0  0  0  0
    5.1974   -2.3080    0.0000 C    0  0  0  0  0  0  0  0  0  0  0  0
    4.9895   -3.2862    0.0000 C    0  0  0  0  0  0  0  0  0  0  0  0
    4.0385   -3.5952    0.0000 C    0  0  0  0  0  0  0  0  0  0  0  0
    3.2953   -2.9260    0.0000 C    0  0  0  0  0  0  0  0  0  0  0  0
  1 33  2  0  0  0  0
  1  2  1  0  0  0  0
  1 29  1  0  0  0  0
  2  3  2  0  0  0  0
  2  5  1  0  0  0  0
  3  4  1  0  0  0  0
  5 28  1  0  0  0  0
  5  6  2  0  0  0  0
  6  7  1  0  0  0  0
  6 22  1  0  0  0  0
  7  8  2  0  0  0  0
  7  9  1  0  0  0  0
  7 15  1  0  0  0  0
  9 14  2  0  0  0  0
  9 10  1  0  0  0  0
 10 11  2  0  0  0  0
 11 12  1  0  0  0  0
 12 13  2  0  0  0  0
 13 14  1  0  0  0  0
 15 21  2  0  0  0  0
 15 16  1  0  0  0  0
 16 17  2  0  0  0  0
 17 18  1  0  0  0  0
 18 19  1  0  0  0  0
 18 20  2  0  0  0  0
 20 21  1  0  0  0  0
 22 23  1  0  0  0  0
 23 28  2  0  0  0  0
 23 24  1  0  0  0  0
 24 25  2  0  0  0  0
 25 26  1  0  0  0  0
 26 27  2  0  0  0  0
 27 28  1  0  0  0  0
 29 30  2  0  0  0  0
 30 31  1  0  0  0  0
 31 32  2  0  0  0  0
 32 33  1  0  0  0  0
M  END
> <NMREDATA_VERSION>
1.1

> <NMREDATA_LEVEL>
0

> <NMREDATA_SOLVENT>
CDCl3

> <NMREDATA_FORMULA>
C28H20ClFNOP

> <NMREDATA_SMILES>
F/C=C(/c1c2ccccc2[nH]c1P(=O)(c1ccc(cc1)Cl)c1ccccc1)\c1ccccc1

> <NMREDATA_ASSIGNMENT>
P7, 21.10, 7

> <NMREDATA_1D_31P>
Larmor=243
21.10, L=P7

$$$$
