
 OpenBabel06112616442D

 46 52  0  0  0  0  0  0  0  0999 V2000
   -7.6603    3.0000    0.0000 C   0  0  0  0  0  0  0  0  0  0  0  0
   -6.7942    2.5000    0.0000 C   0  0  0  0  0  0  0  0  0  0  0  0
   -5.9282    3.0000    0.0000 C   0  0  0  0  0  0  0  0  0  0  0  0
   -5.9282    4.0000    0.0000 C   0  0  0  0  0  0  0  0  0  0  0  0
   -5.0622    2.5000    0.0000 C   0  0  0  0  0  0  0  0  0  0  0  0
   -4.1962    3.0000    0.0000 S   0  0  0  0  0  0  0  0  0  0  0  0
   -4.1962    4.0000    0.0000 C   0  0  0  0  0  0  0  0  0  0  0  0
   -3.3301    4.5000    0.0000 C   0  0  0  0  0  0  0  0  0  0  0  0
   -2.4641    4.0000    0.0000 N   0  0  0  0  0  0  0  0  0  0  0  0
   -2.4641    3.0000    0.0000 C   0  0  0  0  0  0  0  0  0  0  0  0
   -1.5981    2.5000    0.0000 C   0  0  0  0  0  0  0  0  0  0  0  0
   -0.7321    3.0000    0.0000 N   0  0  0  0  0  0  0  0  0  0  0  0
    0.1340    2.5000    0.0000 C   0  0  0  0  0  0  0  0  0  0  0  0
    0.1340    1.5000    0.0000 C   0  0  0  0  0  0  0  0  0  0  0  0
   -0.7321    1.0000    0.0000 C   0  0  0  0  0  0  0  0  0  0  0  0
   -0.7321    0.0000    0.0000 C   0  0  0  0  0  0  0  0  0  0  0  0
   -1.5981   -0.5000    0.0000 C   0  0  0  0  0  0  0  0  0  0  0  0
   -1.5981   -1.5000    0.0000 C   0  0  0  0  0  0  0  0  0  0  0  0
   -0.7321   -2.0000    0.0000 C   0  0  0  0  0  0  0  0  0  0  0  0
    0.1340   -1.5000    0.0000 C   0  0  0  0  0  0  0  0  0  0  0  0
    0.1340   -0.5000    0.0000 C   0  0  0  0  0  0  0  0  0  0  0  0
   -2.4641    0.0000    0.0000 C   0  0  0  0  0  0  0  0  0  0  0  0
   -2.4641    1.0000    0.0000 C   0  0  0  0  0  0  0  0  0  0  0  0
   -1.5981    1.5000    0.0000 C   0  0  0  0  0  0  0  0  0  0  0  0
    1.0000    1.0000    0.0000 C   0  0  0  0  0  0  0  0  0  0  0  0
    1.0000    0.0000    0.0000 P   0  0  1  0  0  0  0  0  0  0  0  0
    2.0000    0.0000    0.0000 C   0  0  0  0  0  0  0  0  0  0  0  0
    2.5000   -0.8660    0.0000 C   0  0  0  0  0  0  0  0  0  0  0  0
    3.5000   -0.8660    0.0000 C   0  0  0  0  0  0  0  0  0  0  0  0
    4.0000    0.0000    0.0000 C   0  0  0  0  0  0  0  0  0  0  0  0
    3.5000    0.8660    0.0000 C   0  0  0  0  0  0  0  0  0  0  0  0
    2.5000    0.8660    0.0000 C   0  0  0  0  0  0  0  0  0  0  0  0
    1.0000   -1.0000    0.0000 O   0  0  0  0  0  0  0  0  0  0  0  0
    0.0000    0.0000    0.0000 C   0  0  0  0  0  0  0  0  0  0  0  0
    1.8660    1.5000    0.0000 N   0  0  0  0  0  0  0  0  0  0  0  0
    1.8660    2.5000    0.0000 C   0  0  0  0  0  0  0  0  0  0  0  0
    1.0000    3.0000    0.0000 N   0  0  0  0  0  0  0  0  0  0  0  0
   -0.7321    4.0000    0.0000 C   0  0  0  0  0  0  0  0  0  0  0  0
   -1.5981    4.5000    0.0000 C   0  0  0  0  0  0  0  0  0  0  0  0
   -3.3301    5.5000    0.0000 C   0  0  0  0  0  0  0  0  0  0  0  0
   -4.1962    6.0000    0.0000 C   0  0  0  0  0  0  0  0  0  0  0  0
   -5.0622    5.5000    0.0000 C   0  0  0  0  0  0  0  0  0  0  0  0
   -5.0622    4.5000    0.0000 C   0  0  0  0  0  0  0  0  0  0  0  0
   -5.0622    1.5000    0.0000 C   0  0  0  0  0  0  0  0  0  0  0  0
   -5.9282    1.0000    0.0000 C   0  0  0  0  0  0  0  0  0  0  0  0
   -6.7942    1.5000    0.0000 C   0  0  0  0  0  0  0  0  0  0  0  0
  1  2  1  0  0  0  0
  2 46  2  0  0  0  0
  2  3  1  0  0  0  0
  3  4  1  0  0  0  0
  3  5  2  0  0  0  0
  5  6  1  0  0  0  0
  5 44  1  0  0  0  0
  6  7  1  0  0  0  0
  7 43  2  0  0  0  0
  7  8  1  0  0  0  0
  8  9  1  0  0  0  0
  8 40  2  0  0  0  0
  9 39  1  0  0  0  0
  9 10  1  0  0  0  0
 10 11  1  0  0  0  0
 11 12  1  0  0  0  0
 12 13  1  0  0  0  0
 12 38  1  0  0  0  0
 13 37  2  0  0  0  0
 13 14  1  0  0  0  0
 14 15  1  0  0  0  0
 14 25  2  0  0  0  0
 15 24  2  0  0  0  0
 15 16  1  0  0  0  0
 16 21  2  0  0  0  0
 16 17  1  0  0  0  0
 17 18  2  0  0  0  0
 17 22  1  0  0  0  0
 18 19  1  0  0  0  0
 19 20  2  0  0  0  0
 20 21  1  0  0  0  0
 22 23  2  0  0  0  0
 23 24  1  0  0  0  0
 25 26  1  0  0  0  0
 25 35  1  0  0  0  0
 26 27  1  0  0  0  0
 26 33  2  0  0  0  0
 26 34  1  6  0  0  0
 27 32  2  0  0  0  0
 27 28  1  0  0  0  0
 28 29  2  0  0  0  0
 29 30  1  0  0  0  0
 30 31  2  0  0  0  0
 31 32  1  0  0  0  0
 35 36  2  0  0  0  0
 36 37  1  0  0  0  0
 38 39  1  0  0  0  0
 40 41  1  0  0  0  0
 41 42  2  0  0  0  0
 42 43  1  0  0  0  0
 44 45  2  0  0  0  0
 45 46  1  0  0  0  0
M  END
> <NMREDATA_VERSION>
1.1

> <NMREDATA_LEVEL>
0

> <NMREDATA_SOLVENT>
CDCl3

> <NMREDATA_FORMULA>
C39H37N4OPS

> <NMREDATA_SMILES>
Cc1c(cccc1C)Sc1ccccc1N1CCN(CC1)c1ncnc(c1c1cccc2c1cccc2)[P@](=O)(c1ccccc1)C

> <NMREDATA_ASSIGNMENT>
P26, 32.55, 26

> <NMREDATA_1D_31P>
Larmor=202
32.55, L=P26

$$$$
