
 OpenBabel06112616462D

 44 47  0  0  1  0  0  0  0  0999 V2000
   -3.9167   -1.9583    0.0000 C   0  0  0  0  0  0  0  0  0  0  0  0
   -2.9375   -1.9583    0.0000 C   0  0  0  0  0  0  0  0  0  0  0  0
   -2.4479   -1.1104    0.0000 C   0  0  0  0  0  0  0  0  0  0  0  0
   -1.4688   -1.1104    0.0000 C   0  0  0  0  0  0  0  0  0  0  0  0
   -0.9792   -1.9583    0.0000 C   0  0  0  0  0  0  0  0  0  0  0  0
    0.0000   -1.9583    0.0000 P   0  0  0  0  0  0  0  0  0  0  0  0
    0.0000   -2.9375    0.0000 O   0  0  0  0  0  0  0  0  0  0  0  0
    0.9792   -1.9583    0.0000 C   0  0  0  0  0  0  0  0  0  0  0  0
    1.4688   -1.1104    0.0000 C   0  0  0  0  0  0  0  0  0  0  0  0
    2.4479   -1.1104    0.0000 C   0  0  0  0  0  0  0  0  0  0  0  0
    2.9375   -1.9583    0.0000 C   0  0  0  0  0  0  0  0  0  0  0  0
    3.9167   -1.9583    0.0000 C   0  0  0  0  0  0  0  0  0  0  0  0
    4.7646   -1.4687    0.0000 F   0  0  0  0  0  0  0  0  0  0  0  0
    3.9167   -0.9792    0.0000 F   0  0  0  0  0  0  0  0  0  0  0  0
    4.4063   -2.8063    0.0000 F   0  0  0  0  0  0  0  0  0  0  0  0
    2.4479   -2.8063    0.0000 C   0  0  0  0  0  0  0  0  0  0  0  0
    1.4688   -2.8063    0.0000 C   0  0  0  0  0  0  0  0  0  0  0  0
    0.0000    0.0000    0.0000 C   0  0  3  0  0  0  0  0  0  0  0  0
    0.8480    0.4896    0.0000 C   0  0  0  0  0  0  0  0  0  0  0  0
    0.8480    1.4688    0.0000 C   0  0  0  0  0  0  0  0  0  0  0  0
    1.6960    1.9583    0.0000 C   0  0  0  0  0  0  0  0  0  0  0  0
    2.5439    1.4688    0.0000 C   0  0  0  0  0  0  0  0  0  0  0  0
    2.5439    0.4896    0.0000 C   0  0  0  0  0  0  0  0  0  0  0  0
    1.6960    0.0000    0.0000 C   0  0  0  0  0  0  0  0  0  0  0  0
   -0.8480    0.4896    0.0000 C   0  0  0  0  0  0  0  0  0  0  0  0
   -0.8480    1.4688    0.0000 C   0  0  0  0  0  0  0  0  0  0  0  0
   -1.6960    1.9583    0.0000 C   0  0  0  0  0  0  0  0  0  0  0  0
   -1.6960    2.9375    0.0000 C   0  0  0  0  0  0  0  0  0  0  0  0
   -1.2064    3.7855    0.0000 C   0  0  0  0  0  0  0  0  0  0  0  0
   -0.7168    2.9375    0.0000 C   0  0  0  0  0  0  0  0  0  0  0  0
   -2.5439    3.4271    0.0000 C   0  0  0  0  0  0  0  0  0  0  0  0
   -2.5439    1.4688    0.0000 C   0  0  0  0  0  0  0  0  0  0  0  0
   -3.3919    1.9583    0.0000 O   0  0  0  0  0  0  0  0  0  0  0  0
   -2.5439    0.4896    0.0000 C   0  0  0  0  0  0  0  0  0  0  0  0
   -3.3919    0.0000    0.0000 C   0  0  0  0  0  0  0  0  0  0  0  0
   -4.3711    0.0000    0.0000 C   0  0  0  0  0  0  0  0  0  0  0  0
   -3.8815    0.8480    0.0000 C   0  0  0  0  0  0  0  0  0  0  0  0
   -3.3919   -0.9792    0.0000 C   0  0  0  0  0  0  0  0  0  0  0  0
   -1.6960    0.0000    0.0000 C   0  0  0  0  0  0  0  0  0  0  0  0
   -1.4687   -2.8063    0.0000 C   0  0  0  0  0  0  0  0  0  0  0  0
   -2.4479   -2.8063    0.0000 C   0  0  0  0  0  0  0  0  0  0  0  0
   -4.7646   -2.4479    0.0000 F   0  0  0  0  0  0  0  0  0  0  0  0
   -3.9167   -2.9375    0.0000 F   0  0  0  0  0  0  0  0  0  0  0  0
   -4.4063   -1.1104    0.0000 F   0  0  0  0  0  0  0  0  0  0  0  0
  1  2  1  0  0  0  0
  1 42  1  0  0  0  0
  1 43  1  0  0  0  0
  1 44  1  0  0  0  0
  2 41  2  0  0  0  0
  2  3  1  0  0  0  0
  3  4  2  0  0  0  0
  4  5  1  0  0  0  0
  5  6  1  0  0  0  0
  5 40  2  0  0  0  0
  6  7  2  0  0  0  0
  6  8  1  0  0  0  0
  6 18  1  0  0  0  0
  8 17  2  0  0  0  0
  8  9  1  0  0  0  0
  9 10  2  0  0  0  0
 10 11  1  0  0  0  0
 11 12  1  0  0  0  0
 11 16  2  0  0  0  0
 12 13  1  0  0  0  0
 12 14  1  0  0  0  0
 12 15  1  0  0  0  0
 16 17  1  0  0  0  0
 18 19  1  0  0  0  0
 18 25  1  0  0  0  0
 19 24  2  0  0  0  0
 19 20  1  0  0  0  0
 20 21  2  0  0  0  0
 21 22  1  0  0  0  0
 22 23  2  0  0  0  0
 23 24  1  0  0  0  0
 25 39  2  0  0  0  0
 25 26  1  0  0  0  0
 26 27  2  0  0  0  0
 27 28  1  0  0  0  0
 27 32  1  0  0  0  0
 28 29  1  0  0  0  0
 28 30  1  0  0  0  0
 28 31  1  0  0  0  0
 32 33  1  0  0  0  0
 32 34  2  0  0  0  0
 34 35  1  0  0  0  0
 34 39  1  0  0  0  0
 35 36  1  0  0  0  0
 35 37  1  0  0  0  0
 35 38  1  0  0  0  0
 40 41  1  0  0  0  0
M  END
> <NMREDATA_VERSION>
1.1

> <NMREDATA_LEVEL>
0

> <NMREDATA_SOLVENT>
CDCl3

> <NMREDATA_FORMULA>
C35H35F6O2P

> <NMREDATA_SMILES>
Oc1c(cc(cc1C(C)(C)C)C(P(=O)(c1ccc(cc1)C(F)(F)F)c1ccc(cc1)C(F)(F)F)c1ccccc1)C(C)(C)C

> <NMREDATA_ASSIGNMENT>
P6, 29.70, 6

> <NMREDATA_1D_31P>
Larmor=160
29.70, L=P6

$$$$
