
 OpenBabel06112616452D

 35 39  0  0  1  0  0  0  0  0999 V2000
    0.0000   -3.9000    0.0000 C   0  0  0  0  0  0  0  0  0  0  0  0
   -0.8444   -3.4125    0.0000 C   0  0  0  0  0  0  0  0  0  0  0  0
   -0.8444   -2.4375    0.0000 C   0  0  0  0  0  0  0  0  0  0  0  0
    0.0000   -1.9500    0.0000 C   0  0  0  0  0  0  0  0  0  0  0  0
    0.0000   -0.9750    0.0000 P   0  0  0  0  0  0  0  0  0  0  0  0
    0.9750   -0.9750    0.0000 C   0  0  0  0  0  0  0  0  0  0  0  0
    1.4625   -0.1306    0.0000 C   0  0  0  0  0  0  0  0  0  0  0  0
    2.4375   -0.1306    0.0000 C   0  0  0  0  0  0  0  0  0  0  0  0
    2.9250   -0.9750    0.0000 C   0  0  0  0  0  0  0  0  0  0  0  0
    2.4375   -1.8194    0.0000 C   0  0  0  0  0  0  0  0  0  0  0  0
    1.4625   -1.8194    0.0000 C   0  0  0  0  0  0  0  0  0  0  0  0
   -1.9500   -0.9750    0.0000 C   0  0  3  0  0  0  0  0  0  0  0  0
   -2.5231   -0.1862    0.0000 C   0  0  3  0  0  0  0  0  0  0  0  0
   -2.2218    0.7411    0.0000 C   0  0  0  0  0  0  0  0  0  0  0  0
   -1.2681    0.9438    0.0000 C   0  0  0  0  0  0  0  0  0  0  0  0
   -0.6157    0.2192    0.0000 C   0  0  0  0  0  0  0  0  0  0  0  0
   -0.9668    1.8711    0.0000 C   0  0  0  0  0  0  0  0  0  0  0  0
   -1.6192    2.5956    0.0000 C   0  0  0  0  0  0  0  0  0  0  0  0
   -2.5729    2.3929    0.0000 C   0  0  0  0  0  0  0  0  0  0  0  0
   -3.2253    3.1175    0.0000 C   0  0  0  0  0  0  0  0  0  0  0  0
   -2.8742    1.4656    0.0000 C   0  0  0  0  0  0  0  0  0  0  0  0
   -3.4504   -0.4875    0.0000 C   0  0  3  0  0  0  0  0  0  0  0  0
   -3.4504   -1.4625    0.0000 N   0  0  0  0  0  0  0  0  0  0  0  0
   -4.2392   -2.0356    0.0000 C   0  0  0  0  0  0  0  0  0  0  0  0
   -2.5231   -1.7638    0.0000 C   0  0  0  0  0  0  0  0  0  0  0  0
   -2.2218   -2.6911    0.0000 O   0  0  0  0  0  0  0  0  0  0  0  0
   -3.3485    0.4822    0.0000 C   0  0  0  0  0  0  0  0  0  0  0  0
   -4.1372    1.0552    0.0000 C   0  0  0  0  0  0  0  0  0  0  0  0
   -5.0280    0.6587    0.0000 C   0  0  0  0  0  0  0  0  0  0  0  0
   -5.8167    1.2318    0.0000 O   0  0  0  0  0  0  0  0  0  0  0  0
   -5.1299   -0.3110    0.0000 C   0  0  0  0  0  0  0  0  0  0  0  0
   -4.3411   -0.8841    0.0000 C   0  0  0  0  0  0  0  0  0  0  0  0
    0.0000    0.0000    0.0000 O   0  0  0  0  0  0  0  0  0  0  0  0
    0.8444   -2.4375    0.0000 C   0  0  0  0  0  0  0  0  0  0  0  0
    0.8444   -3.4125    0.0000 C   0  0  0  0  0  0  0  0  0  0  0  0
  1 35  2  0  0  0  0
  1  2  1  0  0  0  0
  2  3  2  0  0  0  0
  3  4  1  0  0  0  0
  4  5  1  0  0  0  0
  4 34  2  0  0  0  0
  5  6  1  0  0  0  0
  5 12  1  0  0  0  0
  5 33  2  0  0  0  0
  6 11  2  0  0  0  0
  6  7  1  0  0  0  0
  7  8  2  0  0  0  0
  8  9  1  0  0  0  0
  9 10  2  0  0  0  0
 10 11  1  0  0  0  0
 12 25  1  0  0  0  0
 12 13  1  0  0  0  0
 13 14  1  0  0  0  0
 13 22  1  0  0  0  0
 14 21  2  0  0  0  0
 14 15  1  0  0  0  0
 15 16  1  0  0  0  0
 15 17  2  0  0  0  0
 17 18  1  0  0  0  0
 18 19  2  0  0  0  0
 19 20  1  0  0  0  0
 19 21  1  0  0  0  0
 22 32  1  0  0  0  0
 22 23  1  0  0  0  0
 22 27  1  0  0  0  0
 23 24  1  0  0  0  0
 23 25  1  0  0  0  0
 25 26  2  0  0  0  0
 27 28  2  0  0  0  0
 28 29  1  0  0  0  0
 29 30  2  0  0  0  0
 29 31  1  0  0  0  0
 31 32  2  0  0  0  0
 34 35  1  0  0  0  0
M  END
> <NMREDATA_VERSION>
1.1

> <NMREDATA_LEVEL>
0

> <NMREDATA_SOLVENT>
CDCl3

> <NMREDATA_FORMULA>
C30H28NO3P

> <NMREDATA_SMILES>
O=C1C=CC2(C=C1)N(C)C(=O)C(C2c1cc(C)ccc1C)P(=O)(c1ccccc1)c1ccccc1

> <NMREDATA_ASSIGNMENT>
P5, 32.70, 5

> <NMREDATA_1D_31P>
Larmor=162
32.70, L=P5

$$$$
