
 OpenBabel06112616442D

 27 30  0  0  1  0  0  0  0  0999 V2000
   -0.8381    0.4839    0.0000 C   0  0  0  0  0  0  0  0  0  0  0  0
   -0.8381    1.4516    0.0000 C   0  0  0  0  0  0  0  0  0  0  0  0
    0.0000    1.9355    0.0000 C   0  0  0  0  0  0  0  0  0  0  0  0
    0.8381    1.4516    0.0000 C   0  0  0  0  0  0  0  0  0  0  0  0
    2.5143    2.4194    0.0000 P   0  0  0  0  0  0  0  0  0  0  0  0
    3.3524    1.9355    0.0000 C   0  0  0  0  0  0  0  0  0  0  0  0
    4.1904    2.4194    0.0000 C   0  0  0  0  0  0  0  0  0  0  0  0
    5.0285    1.9355    0.0000 C   0  0  0  0  0  0  0  0  0  0  0  0
    5.0285    0.9677    0.0000 C   0  0  0  0  0  0  0  0  0  0  0  0
    4.1904    0.4839    0.0000 C   0  0  0  0  0  0  0  0  0  0  0  0
    3.3524    0.9677    0.0000 C   0  0  0  0  0  0  0  0  0  0  0  0
    2.5143    3.3871    0.0000 C   0  0  0  0  0  0  0  0  0  0  0  0
    1.6762    3.8710    0.0000 C   0  0  0  0  0  0  0  0  0  0  0  0
    1.6762    4.8387    0.0000 C   0  0  0  0  0  0  0  0  0  0  0  0
    2.5143    5.3226    0.0000 C   0  0  0  0  0  0  0  0  0  0  0  0
    3.3524    4.8387    0.0000 C   0  0  0  0  0  0  0  0  0  0  0  0
    3.3524    3.8710    0.0000 C   0  0  0  0  0  0  0  0  0  0  0  0
    0.8381    0.4839    0.0000 C   0  0  0  0  0  0  0  0  0  0  0  0
    1.6762    0.0000    0.0000 C   0  0  0  0  0  0  0  0  0  0  0  0
    1.7773   -0.9624    0.0000 N   0  0  0  0  0  0  0  0  0  0  0  0
    2.7239   -1.1636    0.0000 C   0  0  1  0  0  0  0  0  0  0  0  0
    3.1175   -2.0477    0.0000 C   0  0  0  0  0  0  0  0  0  0  0  0
    4.0800   -2.1489    0.0000 C   0  0  0  0  0  0  0  0  0  0  0  0
    2.5487   -2.8306    0.0000 C   0  0  0  0  0  0  0  0  0  0  0  0
    3.2078   -0.3256    0.0000 C   0  0  0  0  0  0  0  0  0  0  0  0
    2.5603    0.3936    0.0000 O   0  0  0  0  0  0  0  0  0  0  0  0
    0.0000    0.0000    0.0000 C   0  0  0  0  0  0  0  0  0  0  0  0
  1 27  2  0  0  0  0
  1  2  1  0  0  0  0
  2  3  2  0  0  0  0
  3  4  1  0  0  0  0
  4  5  1  0  0  0  0
  4 18  2  0  0  0  0
  5  6  1  0  0  0  0
  5 12  1  0  0  0  0
  6 11  2  0  0  0  0
  6  7  1  0  0  0  0
  7  8  2  0  0  0  0
  8  9  1  0  0  0  0
  9 10  2  0  0  0  0
 10 11  1  0  0  0  0
 12 17  2  0  0  0  0
 12 13  1  0  0  0  0
 13 14  2  0  0  0  0
 14 15  1  0  0  0  0
 15 16  2  0  0  0  0
 16 17  1  0  0  0  0
 18 19  1  0  0  0  0
 18 27  1  0  0  0  0
 19 26  1  0  0  0  0
 19 20  2  0  0  0  0
 20 21  1  0  0  0  0
 21 22  1  6  0  0  0
 21 25  1  0  0  0  0
 22 23  1  0  0  0  0
 22 24  1  0  0  0  0
 25 26  1  0  0  0  0
M  END
> <NMREDATA_VERSION>
1.1

> <NMREDATA_LEVEL>
0

> <NMREDATA_SOLVENT>
CDCl3

> <NMREDATA_FORMULA>
C24H24NOP

> <NMREDATA_SMILES>
CC([C@H]1COC(=N1)c1ccccc1P(c1ccccc1)c1ccccc1)C

> <NMREDATA_ASSIGNMENT>
P5, -5.50, 5

> <NMREDATA_1D_31P>
Larmor=243
-5.50, L=P5

$$$$
