
 OpenBabel06112616472D

 36 40  0  0  0  0  0  0  0  0999 V2000
    2.7601   -1.2788    0.0000 C    0  0  0  0  0  0  0  0  0  0  0  0
    2.9680   -0.3006    0.0000 F    0  0  0  0  0  0  0  0  0  0  0  0
    3.0691   -2.2298    0.0000 F    0  0  0  0  0  0  0  0  0  0  0  0
    3.7382   -1.4867    0.0000 F    0  0  0  0  0  0  0  0  0  0  0  0
    1.8090   -1.5878    0.0000 C    0  0  0  0  0  0  0  0  0  0  0  0
    1.5000   -2.5388    0.0000 O    0  0  0  0  0  0  0  0  0  0  0  0
    0.5000   -2.5388    0.0000 C    0  0  0  0  0  0  0  0  0  0  0  0
   -0.1691   -3.2820    0.0000 C    0  0  0  0  0  0  0  0  0  0  0  0
    0.1399   -4.2330    0.0000 C    0  0  0  0  0  0  0  0  0  0  0  0
   -1.1473   -3.0741    0.0000 C    0  0  0  0  0  0  0  0  0  0  0  0
   -1.8164   -3.8172    0.0000 S    0  0  0  0  0  0  0  0  0  0  0  0
   -2.7946   -3.6093    0.0000 C    0  0  0  0  0  0  0  0  0  0  0  0
   -3.4637   -4.3525    0.0000 C    0  0  0  0  0  0  0  0  0  0  0  0
   -4.4418   -4.1445    0.0000 C    0  0  0  0  0  0  0  0  0  0  0  0
   -4.7509   -3.1935    0.0000 C    0  0  0  0  0  0  0  0  0  0  0  0
   -4.0817   -2.4503    0.0000 C    0  0  0  0  0  0  0  0  0  0  0  0
   -3.1036   -2.6583    0.0000 C    0  0  0  0  0  0  0  0  0  0  0  0
   -2.4344   -1.9151    0.0000 Br   0  0  0  0  0  0  0  0  0  0  0  0
   -1.4563   -2.1230    0.0000 C    0  0  0  0  0  0  0  0  0  0  0  0
   -0.7872   -1.3799    0.0000 C    0  0  0  0  0  0  0  0  0  0  0  0
    0.1910   -1.5878    0.0000 C    0  0  0  0  0  0  0  0  0  0  0  0
    1.0000   -1.0000    0.0000 C    0  0  0  0  0  0  0  0  0  0  0  0
    1.0000    0.0000    0.0000 P    0  0  0  0  0  0  0  0  0  0  0  0
    2.0000    0.0000    0.0000 O    0  0  0  0  0  0  0  0  0  0  0  0
    1.0000    1.0000    0.0000 C    0  0  0  0  0  0  0  0  0  0  0  0
    0.1340    1.5000    0.0000 C    0  0  0  0  0  0  0  0  0  0  0  0
    0.1340    2.5000    0.0000 C    0  0  0  0  0  0  0  0  0  0  0  0
    1.0000    3.0000    0.0000 C    0  0  0  0  0  0  0  0  0  0  0  0
    1.8660    2.5000    0.0000 C    0  0  0  0  0  0  0  0  0  0  0  0
    1.8660    1.5000    0.0000 C    0  0  0  0  0  0  0  0  0  0  0  0
    0.0000    0.0000    0.0000 C    0  0  0  0  0  0  0  0  0  0  0  0
   -0.5000   -0.8660    0.0000 C    0  0  0  0  0  0  0  0  0  0  0  0
   -1.5000   -0.8660    0.0000 C    0  0  0  0  0  0  0  0  0  0  0  0
   -2.0000    0.0000    0.0000 C    0  0  0  0  0  0  0  0  0  0  0  0
   -1.5000    0.8660    0.0000 C    0  0  0  0  0  0  0  0  0  0  0  0
   -0.5000    0.8660    0.0000 C    0  0  0  0  0  0  0  0  0  0  0  0
  1  2  1  0  0  0  0
  1  3  1  0  0  0  0
  1  4  1  0  0  0  0
  1  5  1  0  0  0  0
  5 22  2  0  0  0  0
  5  6  1  0  0  0  0
  6  7  1  0  0  0  0
  7 21  2  0  0  0  0
  7  8  1  0  0  0  0
  8  9  1  0  0  0  0
  8 10  2  0  0  0  0
 10 11  1  0  0  0  0
 10 19  1  0  0  0  0
 11 12  1  0  0  0  0
 12 17  2  0  0  0  0
 12 13  1  0  0  0  0
 13 14  2  0  0  0  0
 14 15  1  0  0  0  0
 15 16  2  0  0  0  0
 16 17  1  0  0  0  0
 17 18  1  0  0  0  0
 19 20  2  0  0  0  0
 20 21  1  0  0  0  0
 21 22  1  0  0  0  0
 22 23  1  0  0  0  0
 23 24  2  0  0  0  0
 23 25  1  0  0  0  0
 23 31  1  0  0  0  0
 25 30  2  0  0  0  0
 25 26  1  0  0  0  0
 26 27  2  0  0  0  0
 27 28  1  0  0  0  0
 28 29  2  0  0  0  0
 29 30  1  0  0  0  0
 31 36  2  0  0  0  0
 31 32  1  0  0  0  0
 32 33  2  0  0  0  0
 33 34  1  0  0  0  0
 34 35  2  0  0  0  0
 35 36  1  0  0  0  0
M  END
> <NMREDATA_VERSION>
1.1

> <NMREDATA_LEVEL>
0

> <NMREDATA_SOLVENT>
CDCl3

> <NMREDATA_FORMULA>
C28H19BrF3O2PS

> <NMREDATA_SMILES>
Brc1ccccc1Sc1ccc2c(c1C)oc(c2P(=O)(c1ccccc1)c1ccccc1)C(F)(F)F

> <NMREDATA_ASSIGNMENT>
P23, 22.32, 23

> <NMREDATA_1D_31P>
Larmor=162
22.32, L=P23

$$$$
