
 OpenBabel06112616472D

 23 22  0  0  1  0  0  0  0  0999 V2000
    4.7330   -4.6883    0.0000 C    0  0  0  0  0  0  0  0  0  0  0  0
    5.2330   -3.8223    0.0000 C    0  0  0  0  0  0  0  0  0  0  0  0
    6.2330   -3.8223    0.0000 C    0  0  0  0  0  0  0  0  0  0  0  0
    4.7330   -2.9563    0.0000 C    0  0  2  0  0  0  0  0  0  0  0  0
    5.2330   -2.0903    0.0000 C    0  0  0  0  0  0  0  0  0  0  0  0
    6.2330   -2.0903    0.0000 O    0  0  0  0  0  0  0  0  0  0  0  0
    6.7330   -2.9563    0.0000 C    0  0  0  0  0  0  0  0  0  0  0  0
    7.7330   -2.9563    0.0000 P    0  0  0  0  0  0  0  0  0  0  0  0
    7.7330   -3.9563    0.0000 O    0  0  0  0  0  0  0  0  0  0  0  0
    8.7330   -2.9563    0.0000 O    0  5  0  0  0  0  0  0  0  0  0  0
    7.7330   -1.9563    0.0000 O    0  5  0  0  0  0  0  0  0  0  0  0
    3.7330   -2.9563    0.0000 N    0  0  0  0  0  0  0  0  0  0  0  0
    3.1453   -3.7653    0.0000 C    0  0  0  0  0  0  0  0  0  0  0  0
    2.1942   -3.4563    0.0000 N    0  0  0  0  0  0  0  0  0  0  0  0
    2.1942   -2.4563    0.0000 C    0  0  0  0  0  0  0  0  0  0  0  0
    1.4511   -1.7872    0.0000 C    0  0  0  0  0  0  0  0  0  0  0  0
    0.5000   -2.0962    0.0000 O    0  0  0  0  0  0  0  0  0  0  0  0
    1.6590   -0.8090    0.0000 N    0  0  0  0  0  0  0  0  0  0  0  0
    2.6100   -0.5000    0.0000 C    0  0  0  0  0  0  0  0  0  0  0  0
    3.3532   -1.1691    0.0000 N    0  0  0  0  0  0  0  0  0  0  0  0
    3.1453   -2.1473    0.0000 C    0  0  0  0  0  0  0  0  0  0  0  0
    0.5000   -5.6883    0.0000 Na   0  3  0  0  0  0  0  0  0  0  0  0
    9.7330   -0.5000    0.0000 Na   0  3  0  0  0  0  0  0  0  0  0  0
  1  2  1  0  0  0  0
  2  3  1  0  0  0  0
  2  4  1  0  0  0  0
  4  5  1  1  0  0  0
  4 12  1  0  0  0  0
  5  6  1  0  0  0  0
  6  7  1  0  0  0  0
  7  8  1  0  0  0  0
  8  9  2  0  0  0  0
  8 10  1  0  0  0  0
  8 11  1  0  0  0  0
 12 21  1  0  0  0  0
 12 13  1  0  0  0  0
 13 14  2  0  0  0  0
 14 15  1  0  0  0  0
 15 21  2  0  0  0  0
 15 16  1  0  0  0  0
 16 17  2  0  0  0  0
 16 18  1  0  0  0  0
 18 19  1  0  0  0  0
 19 20  2  0  0  0  0
 20 21  1  0  0  0  0
M  END
> <NMREDATA_VERSION>
1.1

> <NMREDATA_LEVEL>
0

> <NMREDATA_SOLVENT>
D2O

> <NMREDATA_FORMULA>
C11H15N4Na2O5P

> <NMREDATA_SMILES>
CC([C@@H](n1cnc2c1nc[nH]c2=O)COCP(=O)(O)O)C.[NaH].[NaH]

> <NMREDATA_ASSIGNMENT>
P8, 16.56, 8

> <NMREDATA_1D_31P>
Larmor=162
16.56, L=P8

$$$$
