
 OpenBabel06112616482D

 38 40  0  0  0  0  0  0  0  0999 V2000
   10.7206   -1.5000    0.0000 O   0  0  0  0  0  0  0  0  0  0  0  0
   11.7206   -1.5000    0.0000 S   0  0  0  0  0  0  0  0  0  0  0  0
   11.7206   -2.5000    0.0000 O   0  0  0  0  0  0  0  0  0  0  0  0
   12.7206   -1.5000    0.0000 C   0  0  0  0  0  0  0  0  0  0  0  0
   13.5866   -1.0000    0.0000 F   0  0  0  0  0  0  0  0  0  0  0  0
   12.7206   -0.5000    0.0000 F   0  0  0  0  0  0  0  0  0  0  0  0
   13.2206   -2.3660    0.0000 F   0  0  0  0  0  0  0  0  0  0  0  0
   11.7206   -0.5000    0.0000 O   0  5  0  0  0  0  0  0  0  0  0  0
    5.3529   -0.8901    0.0000 O   0  0  0  0  0  0  0  0  0  0  0  0
    4.8676   -1.7307    0.0000 C   0  0  0  0  0  0  0  0  0  0  0  0
    3.8971   -1.7307    0.0000 C   0  0  0  0  0  0  0  0  0  0  0  0
    3.4118   -2.5712    0.0000 C   0  0  0  0  0  0  0  0  0  0  0  0
    2.4412   -2.5712    0.0000 C   0  0  0  0  0  0  0  0  0  0  0  0
    1.9559   -3.4118    0.0000 C   0  0  0  0  0  0  0  0  0  0  0  0
    0.9853   -3.4118    0.0000 C   0  0  0  0  0  0  0  0  0  0  0  0
    0.5000   -2.5712    0.0000 C   0  0  0  0  0  0  0  0  0  0  0  0
    0.9853   -1.7307    0.0000 C   0  0  0  0  0  0  0  0  0  0  0  0
    1.9559   -1.7307    0.0000 C   0  0  0  0  0  0  0  0  0  0  0  0
    5.8382   -3.4118    0.0000 C   0  0  0  0  0  0  0  0  0  0  0  0
    6.8088   -3.4118    0.0000 P   0  3  0  0  0  0  0  0  0  0  0  0
    6.8088   -4.3824    0.0000 C   0  0  0  0  0  0  0  0  0  0  0  0
    7.6494   -4.8676    0.0000 C   0  0  0  0  0  0  0  0  0  0  0  0
    7.6494   -5.8382    0.0000 C   0  0  0  0  0  0  0  0  0  0  0  0
    6.8088   -6.3235    0.0000 C   0  0  0  0  0  0  0  0  0  0  0  0
    5.9683   -5.8382    0.0000 C   0  0  0  0  0  0  0  0  0  0  0  0
    5.9683   -4.8676    0.0000 C   0  0  0  0  0  0  0  0  0  0  0  0
    7.7794   -3.4118    0.0000 C   0  0  0  0  0  0  0  0  0  0  0  0
    8.2647   -2.5712    0.0000 C   0  0  0  0  0  0  0  0  0  0  0  0
    9.2353   -2.5712    0.0000 C   0  0  0  0  0  0  0  0  0  0  0  0
    9.7206   -3.4118    0.0000 C   0  0  0  0  0  0  0  0  0  0  0  0
    9.2353   -4.2523    0.0000 C   0  0  0  0  0  0  0  0  0  0  0  0
    8.2647   -4.2523    0.0000 C   0  0  0  0  0  0  0  0  0  0  0  0
    6.8088   -2.4412    0.0000 C   0  0  0  0  0  0  0  0  0  0  0  0
    5.9683   -1.9559    0.0000 C   0  0  0  0  0  0  0  0  0  0  0  0
    5.9683   -0.9853    0.0000 C   0  0  0  0  0  0  0  0  0  0  0  0
    6.8088   -0.5000    0.0000 C   0  0  0  0  0  0  0  0  0  0  0  0
    7.6494   -0.9853    0.0000 C   0  0  0  0  0  0  0  0  0  0  0  0
    7.6494   -1.9559    0.0000 C   0  0  0  0  0  0  0  0  0  0  0  0
  1  2  2  0  0  0  0
  2  3  2  0  0  0  0
  2  4  1  0  0  0  0
  2  8  1  0  0  0  0
  4  5  1  0  0  0  0
  4  6  1  0  0  0  0
  4  7  1  0  0  0  0
  9 10  2  0  0  0  0
 10 11  1  0  0  0  0
 10 19  1  0  0  0  0
 11 12  2  0  0  0  0
 12 13  1  0  0  0  0
 13 18  2  0  0  0  0
 13 14  1  0  0  0  0
 14 15  2  0  0  0  0
 15 16  1  0  0  0  0
 16 17  2  0  0  0  0
 17 18  1  0  0  0  0
 19 20  1  0  0  0  0
 20 21  1  0  0  0  0
 20 27  1  0  0  0  0
 20 33  1  0  0  0  0
 21 26  2  0  0  0  0
 21 22  1  0  0  0  0
 22 23  2  0  0  0  0
 23 24  1  0  0  0  0
 24 25  2  0  0  0  0
 25 26  1  0  0  0  0
 27 32  2  0  0  0  0
 27 28  1  0  0  0  0
 28 29  2  0  0  0  0
 29 30  1  0  0  0  0
 30 31  2  0  0  0  0
 31 32  1  0  0  0  0
 33 38  2  0  0  0  0
 33 34  1  0  0  0  0
 34 35  2  0  0  0  0
 35 36  1  0  0  0  0
 36 37  2  0  0  0  0
 37 38  1  0  0  0  0
M  END
> <NMREDATA_VERSION>
1.1

> <NMREDATA_LEVEL>
0

> <NMREDATA_SOLVENT>
DMSO-d6

> <NMREDATA_FORMULA>
C29H24F3O4PS

> <NMREDATA_SMILES>
FC(S(=O)(=O)[O-])(F)F.O=C(C[P+](c1ccccc1)(c1ccccc1)c1ccccc1)/C=C/c1ccccc1

> <NMREDATA_ASSIGNMENT>
P20, 21.12, 20

> <NMREDATA_1D_31P>
Larmor=121
21.12, L=P20

$$$$
