
 OpenBabel06112616482D

 25 26  0  0  1  0  0  0  0  0999 V2000
    4.0023   -1.1368    0.0000 C   0  0  0  0  0  0  0  0  0  0  0  0
    3.1057   -1.1368    0.0000 F   0  0  0  0  0  0  0  0  0  0  0  0
    4.7787   -0.6885    0.0000 F   0  0  0  0  0  0  0  0  0  0  0  0
    4.0023   -0.2402    0.0000 F   0  0  0  0  0  0  0  0  0  0  0  0
    4.4506   -1.9132    0.0000 C   0  0  3  0  0  0  0  0  0  0  0  0
    5.3471   -1.9132    0.0000 C   0  0  0  0  0  0  0  0  0  0  0  0
    5.7954   -2.6897    0.0000 C   0  0  0  0  0  0  0  0  0  0  0  0
    5.3471   -3.4661    0.0000 C   0  0  0  0  0  0  0  0  0  0  0  0
    4.4506   -3.4661    0.0000 C   0  0  0  0  0  0  0  0  0  0  0  0
    4.0023   -2.6897    0.0000 C   0  0  3  0  0  0  0  0  0  0  0  0
    0.8966   -0.8966    0.0000 S   0  0  0  0  0  0  0  0  0  0  0  0
    0.8966    0.0000    0.0000 P   0  0  0  0  0  0  0  0  0  0  0  0
    1.7931    0.0000    0.0000 O   0  0  0  0  0  0  0  0  0  0  0  0
    0.8966    0.8966    0.0000 O   0  0  0  0  0  0  0  0  0  0  0  0
    0.1201    1.3448    0.0000 C   0  0  0  0  0  0  0  0  0  0  0  0
    0.1201    2.2414    0.0000 C   0  0  0  0  0  0  0  0  0  0  0  0
    0.0000    0.0000    0.0000 O   0  0  0  0  0  0  0  0  0  0  0  0
   -0.4483    0.7764    0.0000 C   0  0  0  0  0  0  0  0  0  0  0  0
   -1.3448    0.7764    0.0000 C   0  0  0  0  0  0  0  0  0  0  0  0
    3.2259   -3.1379    0.0000 C   0  0  0  0  0  0  0  0  0  0  0  0
    3.2259   -4.0345    0.0000 C   0  0  0  0  0  0  0  0  0  0  0  0
    2.4494   -4.4828    0.0000 C   0  0  0  0  0  0  0  0  0  0  0  0
    1.6730   -4.0345    0.0000 C   0  0  0  0  0  0  0  0  0  0  0  0
    1.6730   -3.1379    0.0000 C   0  0  0  0  0  0  0  0  0  0  0  0
    2.4494   -2.6897    0.0000 C   0  0  0  0  0  0  0  0  0  0  0  0
  1  2  1  0  0  0  0
  1  3  1  0  0  0  0
  1  4  1  0  0  0  0
  1  5  1  0  0  0  0
  5 10  1  0  0  0  0
  5  6  1  0  0  0  0
  6  7  1  0  0  0  0
  7  8  1  0  0  0  0
  8  9  1  0  0  0  0
  9 10  1  0  0  0  0
 10 11  1  0  0  0  0
 10 20  1  0  0  0  0
 11 12  1  0  0  0  0
 12 13  2  0  0  0  0
 12 14  1  0  0  0  0
 12 17  1  0  0  0  0
 14 15  1  0  0  0  0
 15 16  1  0  0  0  0
 17 18  1  0  0  0  0
 18 19  1  0  0  0  0
 20 25  2  0  0  0  0
 20 21  1  0  0  0  0
 21 22  2  0  0  0  0
 22 23  1  0  0  0  0
 23 24  2  0  0  0  0
 24 25  1  0  0  0  0
M  END
> <NMREDATA_VERSION>
1.1

> <NMREDATA_LEVEL>
0

> <NMREDATA_SOLVENT>
CDCl3

> <NMREDATA_FORMULA>
C17H24F3O3PS

> <NMREDATA_SMILES>
CCOP(=O)(SC1(CCCCC1C(F)(F)F)c1ccccc1)OCC

> <NMREDATA_ASSIGNMENT>
P12, 24.59, 12

> <NMREDATA_1D_31P>
Larmor=243
24.59, L=P12

$$$$
