
 OpenBabel06112616432D

 36 40  0  0  0  0  0  0  0  0999 V2000
    0.4230   -1.1945    0.0000 C   0  0  0  0  0  0  0  0  0  0  0  0
   -0.4878   -0.8449    0.0000 C   0  0  0  0  0  0  0  0  0  0  0  0
   -1.0116   -1.6680    0.0000 C   0  0  0  0  0  0  0  0  0  0  0  0
   -1.4421   -0.6421    0.0000 O   0  0  0  0  0  0  0  0  0  0  0  0
   -1.5441    0.3282    0.0000 B   0  0  0  0  0  0  0  0  0  0  0  0
   -2.3890    0.8160    0.0000 C   0  0  0  0  0  0  0  0  0  0  0  0
   -3.2339    0.3282    0.0000 C   0  0  0  0  0  0  0  0  0  0  0  0
   -3.2339   -0.6474    0.0000 C   0  0  0  0  0  0  0  0  0  0  0  0
   -4.0788   -1.1352    0.0000 C   0  0  0  0  0  0  0  0  0  0  0  0
   -5.7686   -0.1596    0.0000 P   0  0  0  0  0  0  0  0  0  0  0  0
   -6.6135   -0.6474    0.0000 C   0  0  0  0  0  0  0  0  0  0  0  0
   -7.4584   -0.1596    0.0000 C   0  0  0  0  0  0  0  0  0  0  0  0
   -8.3033   -0.6474    0.0000 C   0  0  0  0  0  0  0  0  0  0  0  0
   -8.3033   -1.6230    0.0000 C   0  0  0  0  0  0  0  0  0  0  0  0
   -9.1482   -2.1108    0.0000 C   0  0  0  0  0  0  0  0  0  0  0  0
   -7.4584   -2.1108    0.0000 C   0  0  0  0  0  0  0  0  0  0  0  0
   -6.6135   -1.6230    0.0000 C   0  0  0  0  0  0  0  0  0  0  0  0
   -5.7686    0.8160    0.0000 C   0  0  0  0  0  0  0  0  0  0  0  0
   -4.9237    1.3038    0.0000 C   0  0  0  0  0  0  0  0  0  0  0  0
   -4.9237    2.2794    0.0000 C   0  0  0  0  0  0  0  0  0  0  0  0
   -5.7686    2.7672    0.0000 C   0  0  0  0  0  0  0  0  0  0  0  0
   -5.7686    3.7428    0.0000 C   0  0  0  0  0  0  0  0  0  0  0  0
   -6.6135    2.2794    0.0000 C   0  0  0  0  0  0  0  0  0  0  0  0
   -6.6135    1.3038    0.0000 C   0  0  0  0  0  0  0  0  0  0  0  0
   -4.0788   -2.1108    0.0000 C   0  0  0  0  0  0  0  0  0  0  0  0
   -3.2339   -2.5986    0.0000 C   0  0  0  0  0  0  0  0  0  0  0  0
   -2.3890   -2.1108    0.0000 C   0  0  0  0  0  0  0  0  0  0  0  0
   -2.3890   -1.1352    0.0000 C   0  0  0  0  0  0  0  0  0  0  0  0
   -4.0788    0.8160    0.0000 C   0  0  0  0  0  0  0  0  0  0  0  0
   -4.0788    1.7916    0.0000 C   0  0  0  0  0  0  0  0  0  0  0  0
   -3.2339    2.2794    0.0000 C   0  0  0  0  0  0  0  0  0  0  0  0
   -2.3890    1.7916    0.0000 C   0  0  0  0  0  0  0  0  0  0  0  0
   -0.6528    0.7250    0.0000 O   0  0  0  0  0  0  0  0  0  0  0  0
    0.0000    0.0000    0.0000 C   0  0  0  0  0  0  0  0  0  0  0  0
    0.8913   -0.3968    0.0000 C   0  0  0  0  0  0  0  0  0  0  0  0
    0.7893    0.5734    0.0000 C   0  0  0  0  0  0  0  0  0  0  0  0
  1  2  1  0  0  0  0
  2 34  1  0  0  0  0
  2  3  1  0  0  0  0
  2  4  1  0  0  0  0
  4  5  1  0  0  0  0
  5  6  1  0  0  0  0
  5 33  1  0  0  0  0
  6 32  2  0  0  0  0
  6  7  1  0  0  0  0
  7  8  1  0  0  0  0
  7 29  2  0  0  0  0
  8 28  2  0  0  0  0
  8  9  1  0  0  0  0
  9 10  1  0  0  0  0
  9 25  2  0  0  0  0
 10 11  1  0  0  0  0
 10 18  1  0  0  0  0
 11 17  2  0  0  0  0
 11 12  1  0  0  0  0
 12 13  2  0  0  0  0
 13 14  1  0  0  0  0
 14 15  1  0  0  0  0
 14 16  2  0  0  0  0
 16 17  1  0  0  0  0
 18 24  2  0  0  0  0
 18 19  1  0  0  0  0
 19 20  2  0  0  0  0
 20 21  1  0  0  0  0
 21 22  1  0  0  0  0
 21 23  2  0  0  0  0
 23 24  1  0  0  0  0
 25 26  1  0  0  0  0
 26 27  2  0  0  0  0
 27 28  1  0  0  0  0
 29 30  1  0  0  0  0
 30 31  2  0  0  0  0
 31 32  1  0  0  0  0
 33 34  1  0  0  0  0
 34 35  1  0  0  0  0
 34 36  1  0  0  0  0
M  END
> <NMREDATA_VERSION>
1.1

> <NMREDATA_LEVEL>
0

> <NMREDATA_SOLVENT>
CDCl3

> <NMREDATA_FORMULA>
C32H34BO2P

> <NMREDATA_SMILES>
Cc1ccc(cc1)P(c1ccccc1c1ccccc1B1OC(C(O1)(C)C)(C)C)c1ccc(cc1)C

> <NMREDATA_ASSIGNMENT>
P10, -16.31, 10

> <NMREDATA_1D_31P>
Larmor=202
-16.31, L=P10

$$$$
