
 OpenBabel06112616432D

 49 56  0  0  0  0  0  0  0  0999 V2000
   -2.9474   -2.6841    0.0000 C   0  0  0  0  0  0  0  0  0  0  0  0
   -2.4561   -1.8333    0.0000 C   0  0  0  0  0  0  0  0  0  0  0  0
   -2.9474   -0.9825    0.0000 C   0  0  0  0  0  0  0  0  0  0  0  0
   -2.4561   -0.1316    0.0000 C   0  0  0  0  0  0  0  0  0  0  0  0
   -1.4737   -0.1316    0.0000 C   0  0  0  0  0  0  0  0  0  0  0  0
   -0.9825   -0.9825    0.0000 C   0  0  0  0  0  0  0  0  0  0  0  0
    0.0000   -0.9825    0.0000 P   0  0  0  0  0  0  0  0  0  0  0  0
    0.0000   -1.9649    0.0000 O   0  0  0  0  0  0  0  0  0  0  0  0
    1.9649   -0.9825    0.0000 O   0  0  0  0  0  0  0  0  0  0  0  0
    2.4561   -1.8333    0.0000 C   0  0  0  0  0  0  0  0  0  0  0  0
    3.4386   -1.8333    0.0000 C   0  0  0  0  0  0  0  0  0  0  0  0
    3.9298   -0.9825    0.0000 C   0  0  0  0  0  0  0  0  0  0  0  0
    3.4386   -0.1316    0.0000 C   0  0  0  0  0  0  0  0  0  0  0  0
    2.4561   -0.1316    0.0000 O   0  0  0  0  0  0  0  0  0  0  0  0
    1.9649    0.7192    0.0000 C   0  0  0  0  0  0  0  0  0  0  0  0
    3.9298    0.7192    0.0000 C   0  0  0  0  0  0  0  0  0  0  0  0
    4.9123    0.7192    0.0000 C   0  0  0  0  0  0  0  0  0  0  0  0
    5.4035   -0.1316    0.0000 C   0  0  0  0  0  0  0  0  0  0  0  0
    6.3860   -0.1316    0.0000 C   0  0  0  0  0  0  0  0  0  0  0  0
    6.8772   -0.9825    0.0000 C   0  0  0  0  0  0  0  0  0  0  0  0
    6.3860   -1.8333    0.0000 C   0  0  0  0  0  0  0  0  0  0  0  0
    5.4035   -1.8333    0.0000 C   0  0  0  0  0  0  0  0  0  0  0  0
    4.9123   -0.9825    0.0000 C   0  0  0  0  0  0  0  0  0  0  0  0
    3.9298   -2.6841    0.0000 C   0  0  0  0  0  0  0  0  0  0  0  0
    4.9123   -2.6841    0.0000 C   0  0  0  0  0  0  0  0  0  0  0  0
    5.4035   -3.5350    0.0000 C   0  0  0  0  0  0  0  0  0  0  0  0
    4.9123   -4.3858    0.0000 C   0  0  0  0  0  0  0  0  0  0  0  0
    3.9298   -4.3858    0.0000 C   0  0  0  0  0  0  0  0  0  0  0  0
    3.4386   -3.5350    0.0000 C   0  0  0  0  0  0  0  0  0  0  0  0
    2.4561   -3.5350    0.0000 C   0  0  0  0  0  0  0  0  0  0  0  0
    1.9649   -2.6841    0.0000 C   0  0  0  0  0  0  0  0  0  0  0  0
    0.0000    0.0000    0.0000 C   0  0  0  0  0  0  0  0  0  0  0  0
   -0.8508    0.4912    0.0000 C   0  0  0  0  0  0  0  0  0  0  0  0
   -0.8508    1.4737    0.0000 C   0  0  0  0  0  0  0  0  0  0  0  0
    0.0000    1.9649    0.0000 C   0  0  0  0  0  0  0  0  0  0  0  0
    0.8508    1.4737    0.0000 C   0  0  0  0  0  0  0  0  0  0  0  0
    1.7017    1.9649    0.0000 C   0  0  0  0  0  0  0  0  0  0  0  0
    1.7017    2.9474    0.0000 C   0  0  0  0  0  0  0  0  0  0  0  0
    2.5525    3.4386    0.0000 C   0  0  0  0  0  0  0  0  0  0  0  0
    3.4033    2.9474    0.0000 C   0  0  0  0  0  0  0  0  0  0  0  0
    3.4033    1.9649    0.0000 C   0  0  0  0  0  0  0  0  0  0  0  0
    2.5525    1.4737    0.0000 C   0  0  0  0  0  0  0  0  0  0  0  0
    0.8508    0.4912    0.0000 C   0  0  0  0  0  0  0  0  0  0  0  0
   -1.4737   -1.8333    0.0000 C   0  0  0  0  0  0  0  0  0  0  0  0
   -2.4561   -3.5350    0.0000 C   0  0  0  0  0  0  0  0  0  0  0  0
   -2.9474   -4.3858    0.0000 C   0  0  0  0  0  0  0  0  0  0  0  0
   -3.9298   -4.3858    0.0000 C   0  0  0  0  0  0  0  0  0  0  0  0
   -4.4211   -3.5350    0.0000 C   0  0  0  0  0  0  0  0  0  0  0  0
   -3.9298   -2.6841    0.0000 C   0  0  0  0  0  0  0  0  0  0  0  0
  1 49  2  0  0  0  0
  1  2  1  0  0  0  0
  1 45  1  0  0  0  0
  2 44  2  0  0  0  0
  2  3  1  0  0  0  0
  3  4  2  0  0  0  0
  4  5  1  0  0  0  0
  5  6  2  0  0  0  0
  6  7  1  0  0  0  0
  6 44  1  0  0  0  0
  7  8  2  0  0  0  0
  7  9  1  0  0  0  0
  7 32  1  0  0  0  0
  9 10  1  0  0  0  0
 10 31  1  0  0  0  0
 10 11  2  0  0  0  0
 11 12  1  0  0  0  0
 11 24  1  0  0  0  0
 12 23  2  0  0  0  0
 12 13  1  0  0  0  0
 13 14  1  0  0  0  0
 13 16  2  0  0  0  0
 14 15  1  0  0  0  0
 16 17  1  0  0  0  0
 17 18  2  0  0  0  0
 18 23  1  0  0  0  0
 18 19  1  0  0  0  0
 19 20  2  0  0  0  0
 20 21  1  0  0  0  0
 21 22  2  0  0  0  0
 22 23  1  0  0  0  0
 24 29  2  0  0  0  0
 24 25  1  0  0  0  0
 25 26  2  0  0  0  0
 26 27  1  0  0  0  0
 27 28  2  0  0  0  0
 28 29  1  0  0  0  0
 29 30  1  0  0  0  0
 30 31  1  0  0  0  0
 32 43  2  0  0  0  0
 32 33  1  0  0  0  0
 33 34  2  0  0  0  0
 34 35  1  0  0  0  0
 35 36  2  0  0  0  0
 36 37  1  0  0  0  0
 36 43  1  0  0  0  0
 37 42  2  0  0  0  0
 37 38  1  0  0  0  0
 38 39  2  0  0  0  0
 39 40  1  0  0  0  0
 40 41  2  0  0  0  0
 41 42  1  0  0  0  0
 45 46  2  0  0  0  0
 46 47  1  0  0  0  0
 47 48  2  0  0  0  0
 48 49  1  0  0  0  0
M  END
> <NMREDATA_VERSION>
1.1

> <NMREDATA_LEVEL>
0

> <NMREDATA_SOLVENT>
CDCl3

> <NMREDATA_FORMULA>
C45H35O3P

> <NMREDATA_SMILES>
COc1ccc2c(c1C1=C(CCc3c1cccc3)OP(=O)(c1cccc(c1)c1ccccc1)c1cccc(c1)c1ccccc1)cccc2

> <NMREDATA_ASSIGNMENT>
P7, 28.09, 7

> <NMREDATA_1D_31P>
Larmor=162
28.09, L=P7

$$$$
