
 OpenBabel06112616442D

 35 39  0  0  0  0  0  0  0  0999 V2000
    5.3625   -1.8194    0.0000 C   0  0  0  0  0  0  0  0  0  0  0  0
    6.3375   -1.8194    0.0000 C   0  0  0  0  0  0  0  0  0  0  0  0
    7.1819   -1.3319    0.0000 C   0  0  0  0  0  0  0  0  0  0  0  0
    6.3375   -0.8444    0.0000 C   0  0  0  0  0  0  0  0  0  0  0  0
    6.8250   -2.6637    0.0000 C   0  0  0  0  0  0  0  0  0  0  0  0
    4.8750   -2.6637    0.0000 C   0  0  0  0  0  0  0  0  0  0  0  0
    3.9000   -2.6637    0.0000 C   0  0  0  0  0  0  0  0  0  0  0  0
    3.4125   -1.8194    0.0000 C   0  0  0  0  0  0  0  0  0  0  0  0
    2.4375   -1.8194    0.0000 C   0  0  0  0  0  0  0  0  0  0  0  0
    1.9500   -2.6637    0.0000 C   0  0  0  0  0  0  0  0  0  0  0  0
    2.4375   -3.5081    0.0000 C   0  0  0  0  0  0  0  0  0  0  0  0
    1.9500   -4.3525    0.0000 C   0  0  0  0  0  0  0  0  0  0  0  0
    0.9750   -4.3525    0.0000 C   0  0  0  0  0  0  0  0  0  0  0  0
    0.4875   -3.5081    0.0000 C   0  0  0  0  0  0  0  0  0  0  0  0
    0.9750   -2.6637    0.0000 C   0  0  0  0  0  0  0  0  0  0  0  0
    1.9500   -0.9750    0.0000 C   0  0  0  0  0  0  0  0  0  0  0  0
    0.0000   -0.9750    0.0000 P   0  0  0  0  0  0  0  0  0  0  0  0
    0.0000   -1.9500    0.0000 O   0  0  0  0  0  0  0  0  0  0  0  0
   -0.9750   -0.9750    0.0000 C   0  0  0  0  0  0  0  0  0  0  0  0
   -1.4625   -0.1306    0.0000 C   0  0  0  0  0  0  0  0  0  0  0  0
   -2.4375   -0.1306    0.0000 C   0  0  0  0  0  0  0  0  0  0  0  0
   -2.9250   -0.9750    0.0000 C   0  0  0  0  0  0  0  0  0  0  0  0
   -2.4375   -1.8194    0.0000 C   0  0  0  0  0  0  0  0  0  0  0  0
   -1.4625   -1.8194    0.0000 C   0  0  0  0  0  0  0  0  0  0  0  0
    0.0000    0.0000    0.0000 C   0  0  0  0  0  0  0  0  0  0  0  0
    0.8444    0.4875    0.0000 C   0  0  0  0  0  0  0  0  0  0  0  0
    0.8444    1.4625    0.0000 C   0  0  0  0  0  0  0  0  0  0  0  0
    0.0000    1.9500    0.0000 C   0  0  0  0  0  0  0  0  0  0  0  0
   -0.8444    1.4625    0.0000 C   0  0  0  0  0  0  0  0  0  0  0  0
   -0.8444    0.4875    0.0000 C   0  0  0  0  0  0  0  0  0  0  0  0
    2.4375   -0.1306    0.0000 C   0  0  0  0  0  0  0  0  0  0  0  0
    1.9500    0.7137    0.0000 O   0  0  0  0  0  0  0  0  0  0  0  0
    3.4125   -0.1306    0.0000 O   0  0  0  0  0  0  0  0  0  0  0  0
    3.9000   -0.9750    0.0000 C   0  0  0  0  0  0  0  0  0  0  0  0
    4.8750   -0.9750    0.0000 C   0  0  0  0  0  0  0  0  0  0  0  0
  1 35  2  0  0  0  0
  1  2  1  0  0  0  0
  1  6  1  0  0  0  0
  2  3  1  0  0  0  0
  2  4  1  0  0  0  0
  2  5  1  0  0  0  0
  6  7  2  0  0  0  0
  7  8  1  0  0  0  0
  8 34  2  0  0  0  0
  8  9  1  0  0  0  0
  9 10  1  0  0  0  0
  9 16  2  0  0  0  0
 10 15  2  0  0  0  0
 10 11  1  0  0  0  0
 11 12  2  0  0  0  0
 12 13  1  0  0  0  0
 13 14  2  0  0  0  0
 14 15  1  0  0  0  0
 16 17  1  0  0  0  0
 16 31  1  0  0  0  0
 17 18  2  0  0  0  0
 17 19  1  0  0  0  0
 17 25  1  0  0  0  0
 19 24  2  0  0  0  0
 19 20  1  0  0  0  0
 20 21  2  0  0  0  0
 21 22  1  0  0  0  0
 22 23  2  0  0  0  0
 23 24  1  0  0  0  0
 25 30  2  0  0  0  0
 25 26  1  0  0  0  0
 26 27  2  0  0  0  0
 27 28  1  0  0  0  0
 28 29  2  0  0  0  0
 29 30  1  0  0  0  0
 31 32  2  0  0  0  0
 31 33  1  0  0  0  0
 33 34  1  0  0  0  0
 34 35  1  0  0  0  0
M  END
> <NMREDATA_VERSION>
1.1

> <NMREDATA_LEVEL>
0

> <NMREDATA_SOLVENT>
CDCl3

> <NMREDATA_FORMULA>
C31H27O3P

> <NMREDATA_SMILES>
O=c1oc2cc(ccc2c(c1P(=O)(c1ccccc1)c1ccccc1)c1ccccc1)C(C)(C)C

> <NMREDATA_ASSIGNMENT>
P17, 24.60, 17

> <NMREDATA_1D_31P>
Larmor=243
24.60, L=P17

$$$$
