
 OpenBabel06112616442D

 22 25  0  0  0  0  0  0  0  0999 V2000
   -1.0816   -0.4480    0.0000 O    0  0  0  0  0  0  0  0  0  0  0  0
   -0.8327    0.4808    0.0000 P    0  0  3  0  0  0  0  0  0  0  0  0
   -2.3584    1.6515    0.0000 C    0  0  0  0  0  0  0  0  0  0  0  0
   -3.2467    1.2835    0.0000 C    0  0  0  0  0  0  0  0  0  0  0  0
   -4.0096    1.8688    0.0000 C    0  0  0  0  0  0  0  0  0  0  0  0
   -3.8841    2.8222    0.0000 C    0  0  0  0  0  0  0  0  0  0  0  0
   -2.9957    3.1901    0.0000 C    0  0  0  0  0  0  0  0  0  0  0  0
   -2.2329    2.6048    0.0000 C    0  0  0  0  0  0  0  0  0  0  0  0
   -0.8327    1.4423    0.0000 C    0  0  0  0  0  0  0  0  0  0  0  0
   -1.6654    1.9231    0.0000 C    0  0  0  0  0  0  0  0  0  0  0  0
   -1.6654    2.8846    0.0000 C    0  0  0  0  0  0  0  0  0  0  0  0
   -0.8327    3.3654    0.0000 C    0  0  0  0  0  0  0  0  0  0  0  0
    0.0000    2.8846    0.0000 C    0  0  0  0  0  0  0  0  0  0  0  0
    0.0000    1.9231    0.0000 C    0  0  0  0  0  0  0  0  0  0  0  0
    0.8327    1.4423    0.0000 O    0  0  0  0  0  0  0  0  0  0  0  0
    0.8327    0.4808    0.0000 C    0  0  0  0  0  0  0  0  0  0  0  0
    1.6654    0.0000    0.0000 C    0  0  0  0  0  0  0  0  0  0  0  0
    1.6654   -0.9615    0.0000 C    0  0  0  0  0  0  0  0  0  0  0  0
    0.8327   -1.4423    0.0000 C    0  0  0  0  0  0  0  0  0  0  0  0
    0.8327   -2.4038    0.0000 Cl   0  0  0  0  0  0  0  0  0  0  0  0
    0.0000   -0.9615    0.0000 C    0  0  0  0  0  0  0  0  0  0  0  0
    0.0000    0.0000    0.0000 C    0  0  0  0  0  0  0  0  0  0  0  0
  1  2  2  0  0  0  0
  2 22  1  0  0  0  0
  2  3  1  0  0  0  0
  2  9  1  0  0  0  0
  3  8  2  0  0  0  0
  3  4  1  0  0  0  0
  4  5  2  0  0  0  0
  5  6  1  0  0  0  0
  6  7  2  0  0  0  0
  7  8  1  0  0  0  0
  9 14  2  0  0  0  0
  9 10  1  0  0  0  0
 10 11  2  0  0  0  0
 11 12  1  0  0  0  0
 12 13  2  0  0  0  0
 13 14  1  0  0  0  0
 14 15  1  0  0  0  0
 15 16  1  0  0  0  0
 16 22  2  0  0  0  0
 16 17  1  0  0  0  0
 17 18  2  0  0  0  0
 18 19  1  0  0  0  0
 19 20  1  0  0  0  0
 19 21  2  0  0  0  0
 21 22  1  0  0  0  0
M  END
> <NMREDATA_VERSION>
1.1

> <NMREDATA_LEVEL>
0

> <NMREDATA_SOLVENT>
CDCl3

> <NMREDATA_FORMULA>
C18H12ClO2P

> <NMREDATA_SMILES>
Clc1ccc2c(c1)P(=O)(c1ccccc1)c1c(O2)cccc1

> <NMREDATA_ASSIGNMENT>
P2, -0.58, 2

> <NMREDATA_1D_31P>
Larmor=161.83
-0.58, L=P2

$$$$
