
 OpenBabel06112616452D

 31 36  0  0  0  0  0  0  0  0999 V2000
   -2.7802    2.4822    0.0000 C   0  0  0  0  0  0  0  0  0  0  0  0
   -3.2576    1.6691    0.0000 C   0  0  0  0  0  0  0  0  0  0  0  0
   -2.7922    0.8491    0.0000 O   0  0  0  0  0  0  0  0  0  0  0  0
   -3.2696    0.0360    0.0000 P   0  0  3  0  0  0  0  0  0  0  0  0
   -3.7350    0.8560    0.0000 O   0  0  0  0  0  0  0  0  0  0  0  0
   -4.0954   -0.4328    0.0000 O   0  0  0  0  0  0  0  0  0  0  0  0
   -4.1024   -1.3824    0.0000 C   0  0  0  0  0  0  0  0  0  0  0  0
   -4.9224   -1.8478    0.0000 C   0  0  0  0  0  0  0  0  0  0  0  0
   -4.9293   -2.7907    0.0000 C   0  0  0  0  0  0  0  0  0  0  0  0
   -5.7492   -3.2561    0.0000 C   0  0  0  0  0  0  0  0  0  0  0  0
   -6.5623   -2.7787    0.0000 C   0  0  0  0  0  0  0  0  0  0  0  0
   -6.5554   -1.8359    0.0000 C   0  0  0  0  0  0  0  0  0  0  0  0
   -7.3685   -1.3585    0.0000 C   0  0  0  0  0  0  0  0  0  0  0  0
   -5.7354   -1.3704    0.0000 C   0  0  0  0  0  0  0  0  0  0  0  0
   -3.2835   -1.8632    0.0000 C   0  0  0  0  0  0  0  0  0  0  0  0
   -2.4576   -1.3944    0.0000 C   0  0  0  0  0  0  0  0  0  0  0  0
   -1.6417   -1.8706    0.0000 C   0  0  0  0  0  0  0  0  0  0  0  0
   -0.8210   -1.4050    0.0000 C   0  0  0  0  0  0  0  0  0  0  0  0
   -0.0128   -1.8791    0.0000 C   0  0  0  0  0  0  0  0  0  0  0  0
    0.8034   -1.4160    0.0000 C   0  0  0  0  0  0  0  0  0  0  0  0
    0.8204   -0.4737    0.0000 C   0  0  0  0  0  0  0  0  0  0  0  0
    1.6411   -0.0080    0.0000 C   0  0  0  0  0  0  0  0  0  0  0  0
    1.6359    0.9411    0.0000 C   0  0  0  0  0  0  0  0  0  0  0  0
    0.8322    1.4178    0.0000 C   0  0  0  0  0  0  0  0  0  0  0  0
    0.0115    0.9521    0.0000 C   0  0  0  0  0  0  0  0  0  0  0  0
   -0.8062    1.4209    0.0000 C   0  0  0  0  0  0  0  0  0  0  0  0
   -1.6224    0.9578    0.0000 C   0  0  0  0  0  0  0  0  0  0  0  0
   -1.6300    0.0208    0.0000 C   0  0  0  0  0  0  0  0  0  0  0  0
   -2.4507   -0.4448    0.0000 C   0  0  0  0  0  0  0  0  0  0  0  0
   -0.8162   -0.4631    0.0000 C   0  0  0  0  0  0  0  0  0  0  0  0
    0.0000    0.0000    0.0000 C   0  0  0  0  0  0  0  0  0  0  0  0
  1  2  1  0  0  0  0
  2  3  1  0  0  0  0
  3  4  1  0  0  0  0
  4 29  1  0  0  0  0
  4  5  2  0  0  0  0
  4  6  1  0  0  0  0
  6  7  1  0  0  0  0
  7  8  1  0  0  0  0
  7 15  2  0  0  0  0
  8 14  2  0  0  0  0
  8  9  1  0  0  0  0
  9 10  2  0  0  0  0
 10 11  1  0  0  0  0
 11 12  2  0  0  0  0
 12 13  1  0  0  0  0
 12 14  1  0  0  0  0
 15 16  1  0  0  0  0
 16 29  2  0  0  0  0
 16 17  1  0  0  0  0
 17 18  2  0  0  0  0
 18 30  1  0  0  0  0
 18 19  1  0  0  0  0
 19 20  2  0  0  0  0
 20 21  1  0  0  0  0
 21 31  2  0  0  0  0
 21 22  1  0  0  0  0
 22 23  2  0  0  0  0
 23 24  1  0  0  0  0
 24 25  2  0  0  0  0
 25 31  1  0  0  0  0
 25 26  1  0  0  0  0
 26 27  2  0  0  0  0
 27 28  1  0  0  0  0
 28 29  1  0  0  0  0
 28 30  2  0  0  0  0
 30 31  1  0  0  0  0
M  END
> <NMREDATA_VERSION>
1.1

> <NMREDATA_LEVEL>
0

> <NMREDATA_SOLVENT>
CDCl3

> <NMREDATA_FORMULA>
C27H21O3P

> <NMREDATA_SMILES>
CCOP1(=O)OC(=Cc2c1c1ccc3c4c1c(c2)ccc4ccc3)c1cccc(c1)C

> <NMREDATA_ASSIGNMENT>
P4, 11.90, 4

> <NMREDATA_1D_31P>
Larmor=121
11.90, L=P4

$$$$
