
 OpenBabel06112616432D

 32 37  0  0  0  0  0  0  0  0999 V2000
   -2.6324    2.0244    0.0000 C   0  0  0  0  0  0  0  0  0  0  0  0
   -1.6587    2.0244    0.0000 N   0  0  0  0  0  0  0  0  0  0  0  0
   -1.2363    2.9016    0.0000 P   0  0  0  0  0  0  0  0  0  0  0  0
   -0.6284    3.6623    0.0000 S   0  0  0  0  0  0  0  0  0  0  0  0
   -3.1714    3.1196    0.0000 N   0  0  0  0  0  0  0  0  0  0  0  0
   -3.7496    2.3362    0.0000 C   0  0  0  0  0  0  0  0  0  0  0  0
   -4.7171    2.4452    0.0000 C   0  0  0  0  0  0  0  0  0  0  0  0
   -5.1065    3.3377    0.0000 C   0  0  0  0  0  0  0  0  0  0  0  0
   -4.5283    4.1211    0.0000 C   0  0  0  0  0  0  0  0  0  0  0  0
   -3.5608    4.0121    0.0000 C   0  0  0  0  0  0  0  0  0  0  0  0
   -0.2870    3.1183    0.0000 N   0  0  0  0  0  0  0  0  0  0  0  0
   -0.0703    4.0675    0.0000 C   0  0  0  0  0  0  0  0  0  0  0  0
    0.4743    2.5112    0.0000 C   0  0  0  0  0  0  0  0  0  0  0  0
    1.3175    2.9980    0.0000 C   0  0  0  0  0  0  0  0  0  0  0  0
    2.1607    2.5112    0.0000 C   0  0  0  0  0  0  0  0  0  0  0  0
    2.1607    1.5375    0.0000 C   0  0  0  0  0  0  0  0  0  0  0  0
    3.0040    1.0507    0.0000 C   0  0  0  0  0  0  0  0  0  0  0  0
    3.0040    0.0770    0.0000 C   0  0  0  0  0  0  0  0  0  0  0  0
    2.1607   -0.4099    0.0000 C   0  0  0  0  0  0  0  0  0  0  0  0
    1.3175    0.0770    0.0000 C   0  0  0  0  0  0  0  0  0  0  0  0
    1.3175    1.0507    0.0000 C   0  0  0  0  0  0  0  0  0  0  0  0
    0.4743    1.5375    0.0000 C   0  0  0  0  0  0  0  0  0  0  0  0
   -0.2870    0.9304    0.0000 C   0  0  0  0  0  0  0  0  0  0  0  0
   -1.2363    1.1471    0.0000 C   0  0  0  0  0  0  0  0  0  0  0  0
   -1.8985    0.4333    0.0000 C   0  0  0  0  0  0  0  0  0  0  0  0
   -1.6115   -0.4971    0.0000 C   0  0  0  0  0  0  0  0  0  0  0  0
   -0.6623   -0.7138    0.0000 C   0  0  0  0  0  0  0  0  0  0  0  0
   -0.3753   -1.6442    0.0000 C   0  0  0  0  0  0  0  0  0  0  0  0
    0.5740   -1.8609    0.0000 C   0  0  0  0  0  0  0  0  0  0  0  0
    1.2363   -1.1471    0.0000 C   0  0  0  0  0  0  0  0  0  0  0  0
    0.9493   -0.2167    0.0000 C   0  0  0  0  0  0  0  0  0  0  0  0
    0.0000    0.0000    0.0000 C   0  0  0  0  0  0  0  0  0  0  0  0
  1  2  1  0  0  0  0
  2 24  1  0  0  0  0
  2  3  1  0  0  0  0
  3  4  2  0  0  0  0
  3  5  1  0  0  0  0
  3 11  1  0  0  0  0
  5 10  1  0  0  0  0
  5  6  1  0  0  0  0
  6  7  1  0  0  0  0
  7  8  1  0  0  0  0
  8  9  1  0  0  0  0
  9 10  1  0  0  0  0
 11 12  1  0  0  0  0
 11 13  1  0  0  0  0
 13 22  2  0  0  0  0
 13 14  1  0  0  0  0
 14 15  2  0  0  0  0
 15 16  1  0  0  0  0
 16 21  2  0  0  0  0
 16 17  1  0  0  0  0
 17 18  2  0  0  0  0
 18 19  1  0  0  0  0
 19 20  2  0  0  0  0
 20 21  1  0  0  0  0
 21 22  1  0  0  0  0
 22 23  1  0  0  0  0
 23 32  2  0  0  0  0
 23 24  1  0  0  0  0
 24 25  2  0  0  0  0
 25 26  1  0  0  0  0
 26 27  2  0  0  0  0
 27 32  1  0  0  0  0
 27 28  1  0  0  0  0
 28 29  2  0  0  0  0
 29 30  1  0  0  0  0
 30 31  2  0  0  0  0
 31 32  1  0  0  0  0
M  END
> <NMREDATA_VERSION>
1.1

> <NMREDATA_LEVEL>
0

> <NMREDATA_SOLVENT>
CDCl3

> <NMREDATA_FORMULA>
C27H28N3PS

> <NMREDATA_SMILES>
CN1c2ccc3c(c2-c2c(N(P1(=S)N1CCCCC1)C)ccc1c2cccc1)cccc3

> <NMREDATA_ASSIGNMENT>
P3, 87.20, 3

> <NMREDATA_1D_31P>
Larmor=202
87.20, L=P3

$$$$
