
 OpenBabel06112616482D

 27 27  0  0  0  0  0  0  0  0999 V2000
   -1.0000    0.7321    0.0000 C   0  0  0  0  0  0  0  0  0  0  0  0
   -1.5000   -0.1340    0.0000 C   0  0  0  0  0  0  0  0  0  0  0  0
   -1.0000   -1.0000    0.0000 O   0  0  0  0  0  0  0  0  0  0  0  0
    0.0000   -1.0000    0.0000 P   0  0  3  0  0  0  0  0  0  0  0  0
    0.0000   -2.0000    0.0000 N   0  0  0  0  0  0  0  0  0  0  0  0
   -0.8660   -2.5000    0.0000 S   0  0  0  0  0  0  0  0  0  0  0  0
   -0.3660   -3.3660    0.0000 C   0  0  0  0  0  0  0  0  0  0  0  0
   -0.8660   -4.2321    0.0000 C   0  0  0  0  0  0  0  0  0  0  0  0
   -0.3660   -5.0981    0.0000 C   0  0  0  0  0  0  0  0  0  0  0  0
    0.6340   -5.0981    0.0000 C   0  0  0  0  0  0  0  0  0  0  0  0
    1.1340   -5.9641    0.0000 N   0  3  0  0  0  0  0  0  0  0  0  0
    2.1340   -5.9641    0.0000 O   0  0  0  0  0  0  0  0  0  0  0  0
    0.6340   -6.8301    0.0000 O   0  5  0  0  0  0  0  0  0  0  0  0
    1.1340   -4.2321    0.0000 C   0  0  0  0  0  0  0  0  0  0  0  0
    0.6340   -3.3660    0.0000 C   0  0  0  0  0  0  0  0  0  0  0  0
   -1.7321   -3.0000    0.0000 O   0  0  0  0  0  0  0  0  0  0  0  0
   -1.3660   -1.6340    0.0000 O   0  0  0  0  0  0  0  0  0  0  0  0
    0.8660   -2.5000    0.0000 C   0  0  0  0  0  0  0  0  0  0  0  0
    1.0000   -1.0000    0.0000 O   0  0  0  0  0  0  0  0  0  0  0  0
    0.0000    0.0000    0.0000 C   0  0  0  0  0  0  0  0  0  0  0  0
    0.8660    0.5000    0.0000 C   0  0  0  0  0  0  0  0  0  0  0  0
    1.7321    0.0000    0.0000 C   0  0  0  0  0  0  0  0  0  0  0  0
    2.5981    0.5000    0.0000 C   0  0  0  0  0  0  0  0  0  0  0  0
    3.4641    0.0000    0.0000 C   0  0  0  0  0  0  0  0  0  0  0  0
    4.3301    0.5000    0.0000 C   0  0  0  0  0  0  0  0  0  0  0  0
    5.1962    0.0000    0.0000 C   0  0  0  0  0  0  0  0  0  0  0  0
    6.0622    0.5000    0.0000 C   0  0  0  0  0  0  0  0  0  0  0  0
  1  2  1  0  0  0  0
  2  3  1  0  0  0  0
  3  4  1  0  0  0  0
  4  5  1  0  0  0  0
  4 19  2  0  0  0  0
  4 20  1  0  0  0  0
  5  6  1  0  0  0  0
  5 18  1  0  0  0  0
  6  7  1  0  0  0  0
  6 16  2  0  0  0  0
  6 17  2  0  0  0  0
  7 15  2  0  0  0  0
  7  8  1  0  0  0  0
  8  9  2  0  0  0  0
  9 10  1  0  0  0  0
 10 11  1  0  0  0  0
 10 14  2  0  0  0  0
 11 12  2  0  0  0  0
 11 13  1  0  0  0  0
 14 15  1  0  0  0  0
 20 21  1  0  0  0  0
 21 22  1  0  0  0  0
 22 23  1  0  0  0  0
 23 24  1  0  0  0  0
 24 25  1  0  0  0  0
 25 26  1  0  0  0  0
 26 27  2  0  0  0  0
M  END
> <NMREDATA_VERSION>
1.1

> <NMREDATA_LEVEL>
0

> <NMREDATA_SOLVENT>
CDCl3

> <NMREDATA_FORMULA>
C17H27N2O6PS

> <NMREDATA_SMILES>
C=CCCCCCCP(=O)(N(S(=O)(=O)c1ccc(cc1)[N+](=O)[O-])C)OCC

> <NMREDATA_ASSIGNMENT>
P4, 33.40, 4

> <NMREDATA_1D_31P>
Larmor=243
33.40, L=P4

$$$$
