
 OpenBabel06112616432D

 40 43  0  0  0  0  0  0  0  0999 V2000
    5.1380   -0.5949    0.0000 O    0  0  0  0  0  0  0  0  0  0  0  0
    4.3626    0.0000    0.0000 C    0  0  0  0  0  0  0  0  0  0  0  0
    3.5163   -0.4886    0.0000 C    0  0  0  0  0  0  0  0  0  0  0  0
    2.6700   -0.9773    0.0000 C    0  0  0  0  0  0  0  0  0  0  0  0
    1.8236   -1.4659    0.0000 C    0  0  0  0  0  0  0  0  0  0  0  0
    1.8236   -2.4432    0.0000 C    0  0  0  0  0  0  0  0  0  0  0  0
    0.9773   -2.9318    0.0000 C    0  0  0  0  0  0  0  0  0  0  0  0
    0.1309   -2.4432    0.0000 C    0  0  0  0  0  0  0  0  0  0  0  0
    0.1309   -1.4659    0.0000 C    0  0  0  0  0  0  0  0  0  0  0  0
    0.9773   -0.9773    0.0000 C    0  0  0  0  0  0  0  0  0  0  0  0
    0.9773    0.0000    0.0000 P    0  0  1  0  0  0  0  0  0  0  0  0
    1.9545    0.0000    0.0000 O    0  0  0  0  0  0  0  0  0  0  0  0
    0.9773    1.9545    0.0000 C    0  0  0  0  0  0  0  0  0  0  0  0
    0.1309    2.4432    0.0000 C    0  0  0  0  0  0  0  0  0  0  0  0
    0.1309    3.4205    0.0000 C    0  0  0  0  0  0  0  0  0  0  0  0
    0.9773    3.9091    0.0000 C    0  0  0  0  0  0  0  0  0  0  0  0
    1.8236    3.4205    0.0000 C    0  0  0  0  0  0  0  0  0  0  0  0
    1.8236    2.4432    0.0000 C    0  0  0  0  0  0  0  0  0  0  0  0
    0.0000    0.0000    0.0000 N    0  0  0  0  0  0  0  0  0  0  0  0
   -0.4886   -0.8463    0.0000 C    0  0  0  0  0  0  0  0  0  0  0  0
   -1.4659   -0.8463    0.0000 C    0  0  0  0  0  0  0  0  0  0  0  0
   -0.4886    0.8463    0.0000 C    0  0  0  0  0  0  0  0  0  0  0  0
    0.0000    1.6927    0.0000 N    0  0  0  0  0  0  0  0  0  0  0  0
   -0.4886    2.5390    0.0000 C    0  0  0  0  0  0  0  0  0  0  0  0
   -1.4659    2.5390    0.0000 C    0  0  0  0  0  0  0  0  0  0  0  0
   -1.9545    1.6927    0.0000 C    0  0  0  0  0  0  0  0  0  0  0  0
   -1.4659    0.8463    0.0000 C    0  0  0  0  0  0  0  0  0  0  0  0
   -1.9545    0.0000    0.0000 C    0  0  0  0  0  0  0  0  0  0  0  0
    3.4598    0.3740    0.0000 C    0  0  0  0  0  0  0  0  0  0  0  0
    3.3322    1.3429    0.0000 C    0  0  0  0  0  0  0  0  0  0  0  0
    4.1075    1.9378    0.0000 O    0  0  0  0  0  0  0  0  0  0  0  0
    5.0104    1.5638    0.0000 C    0  0  0  0  0  0  0  0  0  0  0  0
    5.1380    0.5949    0.0000 C    0  0  0  0  0  0  0  0  0  0  0  0
    5.0104   -1.5638    0.0000 Si   0  0  0  0  0  0  0  0  0  0  0  0
    4.0415   -1.4363    0.0000 C    0  0  0  0  0  0  0  0  0  0  0  0
    4.8828   -2.5327    0.0000 C    0  0  0  0  0  0  0  0  0  0  0  0
    5.9793   -1.6914    0.0000 C    0  0  0  0  0  0  0  0  0  0  0  0
    6.8822   -1.3174    0.0000 C    0  0  0  0  0  0  0  0  0  0  0  0
    6.1069   -0.7225    0.0000 C    0  0  0  0  0  0  0  0  0  0  0  0
    6.3533   -2.5943    0.0000 C    0  0  0  0  0  0  0  0  0  0  0  0
  1  2  1  0  0  0  0
  1 34  1  0  0  0  0
  2 33  1  0  0  0  0
  2  3  1  0  0  0  0
  2 29  1  0  0  0  0
  3  4  3  0  0  0  0
  4  5  1  0  0  0  0
  5 10  2  0  0  0  0
  5  6  1  0  0  0  0
  6  7  2  0  0  0  0
  7  8  1  0  0  0  0
  8  9  2  0  0  0  0
  9 10  1  0  0  0  0
 10 11  1  0  0  0  0
 11 12  2  1  0  0  0
 11 13  1  0  0  0  0
 11 19  1  0  0  0  0
 13 18  2  0  0  0  0
 13 14  1  0  0  0  0
 14 15  2  0  0  0  0
 15 16  1  0  0  0  0
 16 17  2  0  0  0  0
 17 18  1  0  0  0  0
 19 20  1  0  0  0  0
 19 22  1  0  0  0  0
 20 21  1  0  0  0  0
 22 27  2  0  0  0  0
 22 23  1  0  0  0  0
 23 24  2  0  0  0  0
 24 25  1  0  0  0  0
 25 26  2  0  0  0  0
 26 27  1  0  0  0  0
 27 28  1  0  0  0  0
 29 30  1  0  0  0  0
 30 31  1  0  0  0  0
 31 32  1  0  0  0  0
 32 33  1  0  0  0  0
 34 35  1  0  0  0  0
 34 36  1  0  0  0  0
 34 37  1  0  0  0  0
 37 38  1  0  0  0  0
 37 39  1  0  0  0  0
 37 40  1  0  0  0  0
M  END
> <NMREDATA_VERSION>
1.1

> <NMREDATA_LEVEL>
0

> <NMREDATA_SOLVENT>
CDCl3

> <NMREDATA_FORMULA>
C33H43N2O3PSi

> <NMREDATA_SMILES>
CCN([P@@](=O)(c1ccccc1C#CC1(CCOCC1)O[Si](C(C)(C)C)(C)C)c1ccccc1)c1ncccc1C

> <NMREDATA_ASSIGNMENT>
P11, 28.98, 11

> <NMREDATA_1D_31P>
Larmor=162
28.98, L=P11

$$$$
