
 OpenBabel06112616472D

 41 44  0  0  0  0  0  0  0  0999 V2000
    9.0000   -1.5000    0.0000 O   0  0  0  0  0  0  0  0  0  0  0  0
   10.0000   -1.5000    0.0000 S   0  0  0  0  0  0  0  0  0  0  0  0
   10.0000   -2.5000    0.0000 O   0  0  0  0  0  0  0  0  0  0  0  0
   11.0000   -1.5000    0.0000 C   0  0  0  0  0  0  0  0  0  0  0  0
   11.8660   -1.0000    0.0000 F   0  0  0  0  0  0  0  0  0  0  0  0
   11.0000   -0.5000    0.0000 F   0  0  0  0  0  0  0  0  0  0  0  0
   11.5000   -2.3660    0.0000 F   0  0  0  0  0  0  0  0  0  0  0  0
   10.0000   -0.5000    0.0000 O   0  5  0  0  0  0  0  0  0  0  0  0
    5.0000   -6.5000    0.0000 C   0  0  0  0  0  0  0  0  0  0  0  0
    4.1340   -6.0000    0.0000 C   0  0  0  0  0  0  0  0  0  0  0  0
    4.1340   -5.0000    0.0000 C   0  0  0  0  0  0  0  0  0  0  0  0
    5.0000   -4.5000    0.0000 C   0  0  0  0  0  0  0  0  0  0  0  0
    5.0000   -3.5000    0.0000 P   0  3  0  0  0  0  0  0  0  0  0  0
    6.0000   -3.5000    0.0000 C   0  0  0  0  0  0  0  0  0  0  0  0
    6.5000   -2.6340    0.0000 C   0  0  0  0  0  0  0  0  0  0  0  0
    7.5000   -2.6340    0.0000 C   0  0  0  0  0  0  0  0  0  0  0  0
    8.0000   -3.5000    0.0000 C   0  0  0  0  0  0  0  0  0  0  0  0
    7.5000   -4.3660    0.0000 C   0  0  0  0  0  0  0  0  0  0  0  0
    6.5000   -4.3660    0.0000 C   0  0  0  0  0  0  0  0  0  0  0  0
    5.0000   -2.5000    0.0000 C   0  0  0  0  0  0  0  0  0  0  0  0
    4.1340   -2.0000    0.0000 C   0  0  0  0  0  0  0  0  0  0  0  0
    4.1340   -1.0000    0.0000 C   0  0  0  0  0  0  0  0  0  0  0  0
    5.0000   -0.5000    0.0000 C   0  0  0  0  0  0  0  0  0  0  0  0
    5.8660   -1.0000    0.0000 C   0  0  0  0  0  0  0  0  0  0  0  0
    5.8660   -2.0000    0.0000 C   0  0  0  0  0  0  0  0  0  0  0  0
    4.0000   -3.5000    0.0000 C   0  0  0  0  0  0  0  0  0  0  0  0
    3.5000   -4.3660    0.0000 C   0  0  0  0  0  0  0  0  0  0  0  0
    2.5000   -4.3660    0.0000 C   0  0  0  0  0  0  0  0  0  0  0  0
    2.0000   -5.2321    0.0000 C   0  0  0  0  0  0  0  0  0  0  0  0
    2.5000   -6.0981    0.0000 C   0  0  0  0  0  0  0  0  0  0  0  0
    3.5000   -6.0981    0.0000 F   0  0  0  0  0  0  0  0  0  0  0  0
    2.0000   -6.9641    0.0000 C   0  0  0  0  0  0  0  0  0  0  0  0
    1.0000   -6.9641    0.0000 C   0  0  0  0  0  0  0  0  0  0  0  0
    0.5000   -7.8301    0.0000 F   0  0  0  0  0  0  0  0  0  0  0  0
    0.5000   -6.0981    0.0000 C   0  0  0  0  0  0  0  0  0  0  0  0
    1.0000   -5.2321    0.0000 C   0  0  0  0  0  0  0  0  0  0  0  0
    2.0000   -3.5000    0.0000 N   0  0  0  0  0  0  0  0  0  0  0  0
    2.5000   -2.6340    0.0000 C   0  0  0  0  0  0  0  0  0  0  0  0
    3.5000   -2.6340    0.0000 C   0  0  0  0  0  0  0  0  0  0  0  0
    5.8660   -5.0000    0.0000 C   0  0  0  0  0  0  0  0  0  0  0  0
    5.8660   -6.0000    0.0000 C   0  0  0  0  0  0  0  0  0  0  0  0
  1  2  2  0  0  0  0
  2  3  2  0  0  0  0
  2  4  1  0  0  0  0
  2  8  1  0  0  0  0
  4  5  1  0  0  0  0
  4  6  1  0  0  0  0
  4  7  1  0  0  0  0
  9 41  2  0  0  0  0
  9 10  1  0  0  0  0
 10 11  2  0  0  0  0
 11 12  1  0  0  0  0
 12 13  1  0  0  0  0
 12 40  2  0  0  0  0
 13 14  1  0  0  0  0
 13 20  1  0  0  0  0
 13 26  1  0  0  0  0
 14 19  2  0  0  0  0
 14 15  1  0  0  0  0
 15 16  2  0  0  0  0
 16 17  1  0  0  0  0
 17 18  2  0  0  0  0
 18 19  1  0  0  0  0
 20 25  2  0  0  0  0
 20 21  1  0  0  0  0
 21 22  2  0  0  0  0
 22 23  1  0  0  0  0
 23 24  2  0  0  0  0
 24 25  1  0  0  0  0
 26 39  2  0  0  0  0
 26 27  1  0  0  0  0
 27 28  2  0  0  0  0
 28 29  1  0  0  0  0
 28 37  1  0  0  0  0
 29 36  2  0  0  0  0
 29 30  1  0  0  0  0
 30 31  1  0  0  0  0
 30 32  2  0  0  0  0
 32 33  1  0  0  0  0
 33 34  1  0  0  0  0
 33 35  2  0  0  0  0
 35 36  1  0  0  0  0
 37 38  2  0  0  0  0
 38 39  1  0  0  0  0
 40 41  1  0  0  0  0
M  END
> <NMREDATA_VERSION>
1.1

> <NMREDATA_LEVEL>
0

> <NMREDATA_SOLVENT>
DMSO-d6

> <NMREDATA_FORMULA>
C30H21F5NO3PS

> <NMREDATA_SMILES>
FC(S(=O)(=O)[O-])(F)F.Fc1ccc(c(c1)F)c1nccc(c1)[P+](c1ccccc1)(c1ccccc1)c1ccccc1

> <NMREDATA_ASSIGNMENT>
P13, 22.08, 13

> <NMREDATA_1D_31P>
Larmor=not_known
22.08, L=P13

$$$$
