
 OpenBabel06112616462D

 37 42  0  0  0  0  0  0  0  0999 V2000
    0.8459   -1.4651    0.0000 C   0  0  0  0  0  0  0  0  0  0  0  0
    0.0000   -0.9767    0.0000 C   0  0  0  0  0  0  0  0  0  0  0  0
   -0.8459   -1.4651    0.0000 C   0  0  0  0  0  0  0  0  0  0  0  0
   -1.6918   -0.9767    0.0000 C   0  0  0  0  0  0  0  0  0  0  0  0
   -1.6918    0.0000    0.0000 C   0  0  0  0  0  0  0  0  0  0  0  0
   -2.5377    0.4884    0.0000 C   0  0  0  0  0  0  0  0  0  0  0  0
   -3.3835    0.0000    0.0000 C   0  0  0  0  0  0  0  0  0  0  0  0
   -3.3835   -0.9767    0.0000 C   0  0  0  0  0  0  0  0  0  0  0  0
   -2.5377   -1.4651    0.0000 C   0  0  0  0  0  0  0  0  0  0  0  0
   -2.5377   -2.4419    0.0000 C   0  0  0  0  0  0  0  0  0  0  0  0
   -3.3835   -2.9302    0.0000 C   0  0  0  0  0  0  0  0  0  0  0  0
   -3.3835   -3.9070    0.0000 C   0  0  0  0  0  0  0  0  0  0  0  0
   -4.2294   -2.4419    0.0000 C   0  0  0  0  0  0  0  0  0  0  0  0
   -4.2294   -1.4651    0.0000 C   0  0  0  0  0  0  0  0  0  0  0  0
   -4.2294    0.4884    0.0000 N   0  0  0  0  0  0  0  0  0  0  0  0
   -5.9212   -0.4884    0.0000 C   0  0  0  0  0  0  0  0  0  0  0  0
   -5.9212   -1.4651    0.0000 C   0  0  0  0  0  0  0  0  0  0  0  0
   -6.7671   -1.9535    0.0000 C   0  0  0  0  0  0  0  0  0  0  0  0
   -7.6130   -1.4651    0.0000 C   0  0  0  0  0  0  0  0  0  0  0  0
   -7.6130   -0.4884    0.0000 C   0  0  0  0  0  0  0  0  0  0  0  0
   -6.7671    0.0000    0.0000 C   0  0  0  0  0  0  0  0  0  0  0  0
   -4.2294    1.4651    0.0000 P   0  0  3  0  0  0  0  0  0  0  0  0
   -4.7178    2.3110    0.0000 O   0  0  0  0  0  0  0  0  0  0  0  0
   -5.2062    1.4651    0.0000 C   0  0  0  0  0  0  0  0  0  0  0  0
   -5.6945    0.6192    0.0000 C   0  0  0  0  0  0  0  0  0  0  0  0
   -6.6713    0.6192    0.0000 C   0  0  0  0  0  0  0  0  0  0  0  0
   -7.1597    1.4651    0.0000 C   0  0  0  0  0  0  0  0  0  0  0  0
   -6.6713    2.3110    0.0000 C   0  0  0  0  0  0  0  0  0  0  0  0
   -5.6945    2.3110    0.0000 C   0  0  0  0  0  0  0  0  0  0  0  0
   -3.3835    1.9535    0.0000 C   0  0  0  0  0  0  0  0  0  0  0  0
   -3.3835    2.9302    0.0000 C   0  0  0  0  0  0  0  0  0  0  0  0
   -2.5377    3.4186    0.0000 C   0  0  0  0  0  0  0  0  0  0  0  0
   -1.6918    2.9302    0.0000 C   0  0  0  0  0  0  0  0  0  0  0  0
   -1.6918    1.9535    0.0000 C   0  0  0  0  0  0  0  0  0  0  0  0
   -2.5377    1.4651    0.0000 C   0  0  0  0  0  0  0  0  0  0  0  0
   -0.8459    0.4884    0.0000 C   0  0  0  0  0  0  0  0  0  0  0  0
    0.0000    0.0000    0.0000 C   0  0  0  0  0  0  0  0  0  0  0  0
  1  2  1  0  0  0  0
  2 37  2  0  0  0  0
  2  3  1  0  0  0  0
  3  4  2  0  0  0  0
  4  5  1  0  0  0  0
  5  6  1  0  0  0  0
  5 36  2  0  0  0  0
  6 35  1  0  0  0  0
  6  7  2  0  0  0  0
  7  8  1  0  0  0  0
  7 15  1  0  0  0  0
  8 14  2  0  0  0  0
  8  9  1  0  0  0  0
  9 10  2  0  0  0  0
 10 11  1  0  0  0  0
 11 12  1  0  0  0  0
 11 13  2  0  0  0  0
 13 14  1  0  0  0  0
 15 16  1  0  0  0  0
 15 22  1  0  0  0  0
 16 21  2  0  0  0  0
 16 17  1  0  0  0  0
 17 18  2  0  0  0  0
 18 19  1  0  0  0  0
 19 20  2  0  0  0  0
 20 21  1  0  0  0  0
 22 23  2  0  0  0  0
 22 24  1  0  0  0  0
 22 30  1  0  0  0  0
 24 29  2  0  0  0  0
 24 25  1  0  0  0  0
 25 26  2  0  0  0  0
 26 27  1  0  0  0  0
 27 28  2  0  0  0  0
 28 29  1  0  0  0  0
 30 35  2  0  0  0  0
 30 31  1  0  0  0  0
 31 32  2  0  0  0  0
 32 33  1  0  0  0  0
 33 34  2  0  0  0  0
 34 35  1  0  0  0  0
 36 37  1  0  0  0  0
M  END
> <NMREDATA_VERSION>
1.1

> <NMREDATA_LEVEL>
0

> <NMREDATA_SOLVENT>
CDCl3

> <NMREDATA_FORMULA>
C34H28NOP

> <NMREDATA_SMILES>
Cc1ccc(cc1)C1=C(c2ccc(cc2)C)c2ccccc2P(=O)(N1c1ccccc1)c1ccccc1

> <NMREDATA_ASSIGNMENT>
P22, 15.90, 22

> <NMREDATA_1D_31P>
Larmor=161
15.90, L=P22

$$$$
