
 OpenBabel06112616432D

 46 53  0  0  0  0  0  0  0  0999 V2000
   -3.1940   -2.6285    0.0000 C    0  0  0  0  0  0  0  0  0  0  0  0
   -2.5799   -1.8877    0.0000 C    0  0  0  0  0  0  0  0  0  0  0  0
   -1.6313   -2.0492    0.0000 C    0  0  0  0  0  0  0  0  0  0  0  0
   -2.9144   -0.9855    0.0000 C    0  0  0  0  0  0  0  0  0  0  0  0
   -3.8630   -0.8240    0.0000 C    0  0  0  0  0  0  0  0  0  0  0  0
   -4.1974    0.0782    0.0000 C    0  0  0  0  0  0  0  0  0  0  0  0
   -3.5833    0.8190    0.0000 C    0  0  0  0  0  0  0  0  0  0  0  0
   -2.6347    0.6575    0.0000 C    0  0  0  0  0  0  0  0  0  0  0  0
   -2.0206    1.3983    0.0000 C    0  0  0  0  0  0  0  0  0  0  0  0
   -1.0720    1.2368    0.0000 C    0  0  0  0  0  0  0  0  0  0  0  0
   -2.3550    2.3006    0.0000 C    0  0  0  0  0  0  0  0  0  0  0  0
   -2.3002   -0.2447    0.0000 C    0  0  0  0  0  0  0  0  0  0  0  0
   -0.4030   -0.5677    0.0000 N    0  0  0  0  0  0  0  0  0  0  0  0
   -0.2105   -1.2367    0.0000 C    0  0  0  0  0  0  0  0  0  0  0  0
   -0.9282   -1.8777    0.0000 O    0  0  0  0  0  0  0  0  0  0  0  0
    0.4326   -1.5033    0.0000 C    0  0  0  0  0  0  0  0  0  0  0  0
    0.9137   -2.3366    0.0000 C    0  0  0  0  0  0  0  0  0  0  0  0
    1.8760   -2.3366    0.0000 C    0  0  0  0  0  0  0  0  0  0  0  0
    2.3571   -1.5033    0.0000 C    0  0  0  0  0  0  0  0  0  0  0  0
    1.8760   -0.6700    0.0000 C    0  0  0  0  0  0  0  0  0  0  0  0
    0.9137   -0.6700    0.0000 C    0  0  0  0  0  0  0  0  0  0  0  0
    0.6951    0.0388    0.0000 C    0  0  0  0  0  0  0  0  0  0  0  0
    1.1129    0.6517    0.0000 C    0  0  0  0  0  0  0  0  0  0  0  0
    1.8526    0.7071    0.0000 C    0  0  0  0  0  0  0  0  0  0  0  0
    2.3571    0.1634    0.0000 C    0  0  0  0  0  0  0  0  0  0  0  0
    3.3193    0.1634    0.0000 P    0  0  0  0  0  0  0  0  0  0  0  0
    4.9860    1.1256    0.0000 C    0  0  0  0  0  0  0  0  0  0  0  0
    4.9860    2.0879    0.0000 C    0  0  0  0  0  0  0  0  0  0  0  0
    5.8193    2.5690    0.0000 C    0  0  0  0  0  0  0  0  0  0  0  0
    6.6527    2.0879    0.0000 C    0  0  0  0  0  0  0  0  0  0  0  0
    6.6527    1.1256    0.0000 C    0  0  0  0  0  0  0  0  0  0  0  0
    5.8193    0.6445    0.0000 C    0  0  0  0  0  0  0  0  0  0  0  0
    3.3193    1.1256    0.0000 C    0  0  0  0  0  0  0  0  0  0  0  0
    4.1527    1.6067    0.0000 C    0  0  0  0  0  0  0  0  0  0  0  0
    4.1527    2.5690    0.0000 C    0  0  0  0  0  0  0  0  0  0  0  0
    3.3193    3.0501    0.0000 C    0  0  0  0  0  0  0  0  0  0  0  0
    2.4860    2.5690    0.0000 C    0  0  0  0  0  0  0  0  0  0  0  0
    2.4860    1.6067    0.0000 C    0  0  0  0  0  0  0  0  0  0  0  0
    3.8005   -0.6700    0.0000 C    0  0  0  0  0  0  0  0  0  0  0  0
    4.7417   -0.8700    0.0000 C    0  0  0  0  0  0  0  0  0  0  0  0
    5.4568   -0.2261    0.0000 Br   0  0  0  0  0  0  0  0  0  0  0  0
    4.8423   -1.8270    0.0000 C    0  0  0  0  0  0  0  0  0  0  0  0
    3.9632   -2.2184    0.0000 C    0  0  0  0  0  0  0  0  0  0  0  0
    3.3193   -1.5033    0.0000 C    0  0  0  0  0  0  0  0  0  0  0  0
    0.0000    0.0000    0.0000 C    0  0  0  0  0  0  0  0  0  0  0  0
   -0.4652    0.8423    0.0000 O    0  0  0  0  0  0  0  0  0  0  0  0
  1  2  1  0  0  0  0
  2  3  1  0  0  0  0
  2  4  1  0  0  0  0
  4 12  2  0  0  0  0
  4  5  1  0  0  0  0
  5  6  2  0  0  0  0
  6  7  1  0  0  0  0
  7  8  2  0  0  0  0
  8  9  1  0  0  0  0
  8 12  1  0  0  0  0
  9 10  1  0  0  0  0
  9 11  1  0  0  0  0
 12 13  1  0  0  0  0
 13 45  1  0  0  0  0
 13 14  1  0  0  0  0
 14 15  2  0  0  0  0
 14 16  1  0  0  0  0
 16 21  2  0  0  0  0
 16 17  1  0  0  0  0
 17 18  2  0  0  0  0
 18 19  1  0  0  0  0
 19 44  1  0  0  0  0
 19 20  2  0  0  0  0
 20 25  1  0  0  0  0
 20 21  1  0  0  0  0
 21 22  1  0  0  0  0
 22 23  2  0  0  0  0
 22 45  1  0  0  0  0
 23 24  1  0  0  0  0
 24 25  2  0  0  0  0
 25 26  1  0  0  0  0
 26 27  1  0  0  0  0
 26 33  1  0  0  0  0
 26 39  2  0  0  0  0
 27 32  2  0  0  0  0
 27 28  1  0  0  0  0
 28 29  2  0  0  0  0
 29 30  1  0  0  0  0
 30 31  2  0  0  0  0
 31 32  1  0  0  0  0
 33 38  2  0  0  0  0
 33 34  1  0  0  0  0
 34 35  2  0  0  0  0
 35 36  1  0  0  0  0
 36 37  2  0  0  0  0
 37 38  1  0  0  0  0
 39 44  1  0  0  0  0
 39 40  1  0  0  0  0
 40 41  1  0  0  0  0
 40 42  2  0  0  0  0
 42 43  1  0  0  0  0
 43 44  2  0  0  0  0
 45 46  2  0  0  0  0
M  END
> <NMREDATA_VERSION>
1.1

> <NMREDATA_LEVEL>
0

> <NMREDATA_SOLVENT>
CDCl3

> <NMREDATA_FORMULA>
C41H33BrNO2P

> <NMREDATA_SMILES>
CC(c1cccc(c1N1C(=O)c2ccc3c4c2c(C1=O)ccc4C1=CC=C(C1=P3(c1ccccc1)c1ccccc1)Br)C(C)C)C

> <NMREDATA_ASSIGNMENT>
P26, -4.40, 26

> <NMREDATA_1D_31P>
Larmor=162
-4.40, L=P26

$$$$
