
 OpenBabel06112616452D

 20 21  0  0  0  0  0  0  0  0999 V2000
    0.7412    0.9659    0.0000 C    0  0  0  0  0  0  0  0  0  0  0  0
    1.0000    0.0000    0.0000 C    0  0  0  0  0  0  0  0  0  0  0  0
    1.9914   -0.1305    0.0000 C    0  0  0  0  0  0  0  0  0  0  0  0
    1.5000   -0.8660    0.0000 C    0  0  0  0  0  0  0  0  0  0  0  0
    1.0000   -1.7321    0.0000 O    0  0  0  0  0  0  0  0  0  0  0  0
    0.0000   -1.7321    0.0000 P    0  0  0  0  0  0  0  0  0  0  0  0
   -0.8660   -2.2321    0.0000 S    0  0  0  0  0  0  0  0  0  0  0  0
    0.0000   -2.7321    0.0000 S    0  0  0  0  0  0  0  0  0  0  0  0
   -0.8660   -3.2321    0.0000 C    0  0  0  0  0  0  0  0  0  0  0  0
   -1.7321   -2.7321    0.0000 C    0  0  0  0  0  0  0  0  0  0  0  0
   -2.5981   -3.2321    0.0000 O    0  0  0  0  0  0  0  0  0  0  0  0
   -1.7321   -1.7321    0.0000 C    0  0  0  0  0  0  0  0  0  0  0  0
   -0.8660   -1.2321    0.0000 C    0  0  0  0  0  0  0  0  0  0  0  0
   -0.8660   -0.2321    0.0000 C    0  0  0  0  0  0  0  0  0  0  0  0
   -1.7321    0.2679    0.0000 C    0  0  0  0  0  0  0  0  0  0  0  0
   -1.7321    1.2679    0.0000 Cl   0  0  0  0  0  0  0  0  0  0  0  0
   -2.5981   -0.2321    0.0000 C    0  0  0  0  0  0  0  0  0  0  0  0
   -2.5981   -1.2321    0.0000 C    0  0  0  0  0  0  0  0  0  0  0  0
   -0.5000   -0.8660    0.0000 O    0  0  0  0  0  0  0  0  0  0  0  0
    0.0000    0.0000    0.0000 C    0  0  0  0  0  0  0  0  0  0  0  0
  1  2  1  0  0  0  0
  2 20  1  0  0  0  0
  2  3  1  0  0  0  0
  2  4  1  0  0  0  0
  4  5  1  0  0  0  0
  5  6  1  0  0  0  0
  6  7  2  0  0  0  0
  6  8  1  0  0  0  0
  6 19  1  0  0  0  0
  8  9  1  0  0  0  0
  9 10  1  0  0  0  0
 10 11  2  0  0  0  0
 10 12  1  0  0  0  0
 12 18  2  0  0  0  0
 12 13  1  0  0  0  0
 13 14  2  0  0  0  0
 14 15  1  0  0  0  0
 15 16  1  0  0  0  0
 15 17  2  0  0  0  0
 17 18  1  0  0  0  0
 19 20  1  0  0  0  0
M  END
> <NMREDATA_VERSION>
1.1

> <NMREDATA_LEVEL>
0

> <NMREDATA_SOLVENT>
CDCl3

> <NMREDATA_FORMULA>
C13H16ClO3PS2

> <NMREDATA_SMILES>
O=C(c1ccc(cc1)Cl)CSP1(=S)OCC(CO1)(C)C

> <NMREDATA_ASSIGNMENT>
P6, 87.59, 6

> <NMREDATA_1D_31P>
Larmor=162
87.59, L=P6

$$$$
