
 OpenBabel06112616482D

 36 42  0  0  0  0  0  0  0  0999 V2000
   -7.1353    2.6401    0.0000 C   0  0  0  0  0  0  0  0  0  0  0  0
   -6.6686    1.8319    0.0000 C   0  0  0  0  0  0  0  0  0  0  0  0
   -5.7353    1.8319    0.0000 C   0  0  0  0  0  0  0  0  0  0  0  0
   -5.2686    2.6401    0.0000 C   0  0  0  0  0  0  0  0  0  0  0  0
   -5.7353    3.4484    0.0000 C   0  0  0  0  0  0  0  0  0  0  0  0
   -6.6686    3.4484    0.0000 C   0  0  0  0  0  0  0  0  0  0  0  0
   -5.1107    4.1420    0.0000 C   0  0  0  0  0  0  0  0  0  0  0  0
   -4.2581    3.7624    0.0000 C   0  0  0  0  0  0  0  0  0  0  0  0
   -3.4498    4.2291    0.0000 C   0  0  0  0  0  0  0  0  0  0  0  0
   -3.4498    5.1624    0.0000 C   0  0  0  0  0  0  0  0  0  0  0  0
   -4.2581    5.6291    0.0000 C   0  0  0  0  0  0  0  0  0  0  0  0
   -4.2581    6.5624    0.0000 C   0  0  0  0  0  0  0  0  0  0  0  0
   -3.4498    7.0291    0.0000 C   0  0  0  0  0  0  0  0  0  0  0  0
   -2.6415    6.5624    0.0000 C   0  0  0  0  0  0  0  0  0  0  0  0
   -2.6415    5.6291    0.0000 C   0  0  0  0  0  0  0  0  0  0  0  0
   -1.8332    5.1624    0.0000 C   0  0  0  0  0  0  0  0  0  0  0  0
   -1.8332    4.2291    0.0000 C   0  0  0  0  0  0  0  0  0  0  0  0
   -1.0249    3.7624    0.0000 C   0  0  0  0  0  0  0  0  0  0  0  0
   -1.0249    2.8291    0.0000 C   0  0  0  0  0  0  0  0  0  0  0  0
   -1.8332    2.3624    0.0000 C   0  0  0  0  0  0  0  0  0  0  0  0
   -2.6415    2.8291    0.0000 C   0  0  0  0  0  0  0  0  0  0  0  0
   -2.6415    3.7624    0.0000 C   0  0  0  0  0  0  0  0  0  0  0  0
   -4.3557    2.8342    0.0000 C   0  0  0  0  0  0  0  0  0  0  0  0
   -1.5813    0.3361    0.0000 P   0  0  0  0  0  0  0  0  0  0  0  0
   -1.7753   -0.5768    0.0000 C   0  0  0  0  0  0  0  0  0  0  0  0
   -1.0817   -1.2014    0.0000 C   0  0  0  0  0  0  0  0  0  0  0  0
   -1.2758   -2.1143    0.0000 C   0  0  0  0  0  0  0  0  0  0  0  0
   -2.1634   -2.4027    0.0000 C   0  0  0  0  0  0  0  0  0  0  0  0
   -2.8570   -1.7782    0.0000 C   0  0  0  0  0  0  0  0  0  0  0  0
   -2.6630   -0.8652    0.0000 C   0  0  0  0  0  0  0  0  0  0  0  0
   -0.6936    0.6245    0.0000 C   0  0  0  0  0  0  0  0  0  0  0  0
   -0.4996    1.5375    0.0000 C   0  0  0  0  0  0  0  0  0  0  0  0
    0.3881    1.8259    0.0000 C   0  0  0  0  0  0  0  0  0  0  0  0
    1.0817    1.2014    0.0000 C   0  0  0  0  0  0  0  0  0  0  0  0
    0.8877    0.2884    0.0000 C   0  0  0  0  0  0  0  0  0  0  0  0
    0.0000    0.0000    0.0000 C   0  0  0  0  0  0  0  0  0  0  0  0
  1  6  2  0  0  0  0
  1  2  1  0  0  0  0
  2  3  2  0  0  0  0
  3  4  1  0  0  0  0
  4 23  1  0  0  0  0
  4  5  2  0  0  0  0
  5  6  1  0  0  0  0
  5  7  1  0  0  0  0
  7  8  1  0  0  0  0
  8  9  1  0  0  0  0
  8 23  2  0  0  0  0
  9 22  2  0  0  0  0
  9 10  1  0  0  0  0
 10 15  2  0  0  0  0
 10 11  1  0  0  0  0
 11 12  2  0  0  0  0
 12 13  1  0  0  0  0
 13 14  2  0  0  0  0
 14 15  1  0  0  0  0
 15 16  1  0  0  0  0
 16 17  2  0  0  0  0
 17 22  1  0  0  0  0
 17 18  1  0  0  0  0
 18 19  2  0  0  0  0
 19 20  1  0  0  0  0
 20 21  2  0  0  0  0
 21 22  1  0  0  0  0
 23 24  1  0  0  0  0
 24 25  1  0  0  0  0
 24 31  1  0  0  0  0
 25 30  1  0  0  0  0
 25 26  1  0  0  0  0
 26 27  1  0  0  0  0
 27 28  1  0  0  0  0
 28 29  1  0  0  0  0
 29 30  1  0  0  0  0
 31 36  1  0  0  0  0
 31 32  1  0  0  0  0
 32 33  1  0  0  0  0
 33 34  1  0  0  0  0
 34 35  1  0  0  0  0
 35 36  1  0  0  0  0
M  END
> <NMREDATA_VERSION>
1.1

> <NMREDATA_LEVEL>
0

> <NMREDATA_SOLVENT>
CDCl3

> <NMREDATA_FORMULA>
C35H37P

> <NMREDATA_SMILES>
C1CCC(CC1)P(C1=C(Cc2c1cccc2)c1c2ccccc2cc2c1cccc2)C1CCCCC1

> <NMREDATA_ASSIGNMENT>
P24, -16.21, 24

> <NMREDATA_1D_31P>
Larmor=162
-16.21, L=P24

$$$$
