
 OpenBabel06112616462D

 37 41  0  0  0  0  0  0  0  0999 V2000
    6.5116    2.7779    0.0000 C   0  0  0  0  0  0  0  0  0  0  0  0
    6.6136    1.8071    0.0000 O   0  0  0  0  0  0  0  0  0  0  0  0
    5.8238    1.2333    0.0000 C   0  0  0  0  0  0  0  0  0  0  0  0
    5.9259    0.2624    0.0000 C   0  0  0  0  0  0  0  0  0  0  0  0
    5.1361   -0.3114    0.0000 C   0  0  0  0  0  0  0  0  0  0  0  0
    4.2443    0.0857    0.0000 C   0  0  0  0  0  0  0  0  0  0  0  0
    3.4546   -0.4881    0.0000 C   0  0  0  0  0  0  0  0  0  0  0  0
    3.4546   -1.4643    0.0000 O   0  0  0  0  0  0  0  0  0  0  0  0
    2.5262   -1.7659    0.0000 C   0  0  0  0  0  0  0  0  0  0  0  0
    2.2245   -2.6944    0.0000 C   0  0  0  0  0  0  0  0  0  0  0  0
    2.8777   -3.4198    0.0000 C   0  0  0  0  0  0  0  0  0  0  0  0
    2.5761   -4.3482    0.0000 C   0  0  0  0  0  0  0  0  0  0  0  0
    1.6212   -4.5512    0.0000 C   0  0  0  0  0  0  0  0  0  0  0  0
    0.9680   -3.8257    0.0000 C   0  0  0  0  0  0  0  0  0  0  0  0
    1.2697   -2.8973    0.0000 C   0  0  0  0  0  0  0  0  0  0  0  0
    1.9524   -0.9762    0.0000 C   0  0  0  0  0  0  0  0  0  0  0  0
    0.0000   -0.9762    0.0000 P   0  0  0  0  0  0  0  0  0  0  0  0
    0.0000   -1.9524    0.0000 O   0  0  0  0  0  0  0  0  0  0  0  0
   -0.9762   -0.9762    0.0000 C   0  0  0  0  0  0  0  0  0  0  0  0
   -1.4643   -0.1308    0.0000 C   0  0  0  0  0  0  0  0  0  0  0  0
   -2.4405   -0.1308    0.0000 C   0  0  0  0  0  0  0  0  0  0  0  0
   -2.9286   -0.9762    0.0000 C   0  0  0  0  0  0  0  0  0  0  0  0
   -2.4405   -1.8216    0.0000 C   0  0  0  0  0  0  0  0  0  0  0  0
   -1.4643   -1.8216    0.0000 C   0  0  0  0  0  0  0  0  0  0  0  0
    0.0000    0.0000    0.0000 C   0  0  0  0  0  0  0  0  0  0  0  0
    0.8454    0.4881    0.0000 C   0  0  0  0  0  0  0  0  0  0  0  0
    0.8454    1.4643    0.0000 C   0  0  0  0  0  0  0  0  0  0  0  0
    0.0000    1.9524    0.0000 C   0  0  0  0  0  0  0  0  0  0  0  0
   -0.8454    1.4643    0.0000 C   0  0  0  0  0  0  0  0  0  0  0  0
   -0.8454    0.4881    0.0000 C   0  0  0  0  0  0  0  0  0  0  0  0
    2.5262   -0.1864    0.0000 C   0  0  0  0  0  0  0  0  0  0  0  0
    2.2245    0.7420    0.0000 C   0  0  0  0  0  0  0  0  0  0  0  0
    2.4275    1.6968    0.0000 F   0  0  0  0  0  0  0  0  0  0  0  0
    3.1529    1.0436    0.0000 F   0  0  0  0  0  0  0  0  0  0  0  0
    1.2697    0.9449    0.0000 F   0  0  0  0  0  0  0  0  0  0  0  0
    4.1423    1.0565    0.0000 C   0  0  0  0  0  0  0  0  0  0  0  0
    4.9321    1.6303    0.0000 C   0  0  0  0  0  0  0  0  0  0  0  0
  1  2  1  0  0  0  0
  2  3  1  0  0  0  0
  3 37  2  0  0  0  0
  3  4  1  0  0  0  0
  4  5  2  0  0  0  0
  5  6  1  0  0  0  0
  6  7  1  0  0  0  0
  6 36  2  0  0  0  0
  7 31  2  0  0  0  0
  7  8  1  0  0  0  0
  8  9  1  0  0  0  0
  9 10  1  0  0  0  0
  9 16  2  0  0  0  0
 10 15  2  0  0  0  0
 10 11  1  0  0  0  0
 11 12  2  0  0  0  0
 12 13  1  0  0  0  0
 13 14  2  0  0  0  0
 14 15  1  0  0  0  0
 16 17  1  0  0  0  0
 16 31  1  0  0  0  0
 17 18  2  0  0  0  0
 17 19  1  0  0  0  0
 17 25  1  0  0  0  0
 19 24  2  0  0  0  0
 19 20  1  0  0  0  0
 20 21  2  0  0  0  0
 21 22  1  0  0  0  0
 22 23  2  0  0  0  0
 23 24  1  0  0  0  0
 25 30  2  0  0  0  0
 25 26  1  0  0  0  0
 26 27  2  0  0  0  0
 27 28  1  0  0  0  0
 28 29  2  0  0  0  0
 29 30  1  0  0  0  0
 31 32  1  0  0  0  0
 32 33  1  0  0  0  0
 32 34  1  0  0  0  0
 32 35  1  0  0  0  0
 36 37  1  0  0  0  0
M  END
> <NMREDATA_VERSION>
1.1

> <NMREDATA_LEVEL>
0

> <NMREDATA_SOLVENT>
CDCl3

> <NMREDATA_FORMULA>
C30H22F3O3P

> <NMREDATA_SMILES>
COc1ccc(cc1)c1oc(c(c1C(F)(F)F)P(=O)(c1ccccc1)c1ccccc1)c1ccccc1

> <NMREDATA_ASSIGNMENT>
P17, 19.13, 17

> <NMREDATA_1D_31P>
Larmor=162
19.13, L=P17

$$$$
