
 OpenBabel06112616472D

 33 37  0  0  1  0  0  0  0  0999 V2000
   -3.7000   -3.7000    0.0000 C   0  0  0  0  0  0  0  0  0  0  0  0
   -2.7750   -3.7000    0.0000 C   0  0  0  0  0  0  0  0  0  0  0  0
   -2.3125   -2.8989    0.0000 C   0  0  0  0  0  0  0  0  0  0  0  0
   -1.3875   -2.8989    0.0000 C   0  0  0  0  0  0  0  0  0  0  0  0
   -0.9250   -3.7000    0.0000 C   0  0  0  0  0  0  0  0  0  0  0  0
    0.0000   -3.7000    0.0000 P   0  0  0  0  0  0  0  0  0  0  0  0
    0.0000   -4.6250    0.0000 O   0  0  0  0  0  0  0  0  0  0  0  0
    0.9250   -3.7000    0.0000 C   0  0  0  0  0  0  0  0  0  0  0  0
    1.3875   -2.8989    0.0000 C   0  0  0  0  0  0  0  0  0  0  0  0
    2.3125   -2.8989    0.0000 C   0  0  0  0  0  0  0  0  0  0  0  0
    2.7750   -3.7000    0.0000 C   0  0  0  0  0  0  0  0  0  0  0  0
    3.7000   -3.7000    0.0000 C   0  0  0  0  0  0  0  0  0  0  0  0
    2.3125   -4.5011    0.0000 C   0  0  0  0  0  0  0  0  0  0  0  0
    1.3875   -4.5011    0.0000 C   0  0  0  0  0  0  0  0  0  0  0  0
    0.0000    0.0000    0.0000 N   0  0  0  0  0  0  0  0  0  0  0  0
   -0.7483    0.5437    0.0000 C   0  0  1  0  0  0  0  0  0  0  0  0
   -1.6281    0.2579    0.0000 C   0  0  0  0  0  0  0  0  0  0  0  0
   -1.8204   -0.6469    0.0000 C   0  0  0  0  0  0  0  0  0  0  0  0
   -2.7001   -0.9328    0.0000 C   0  0  0  0  0  0  0  0  0  0  0  0
   -3.3875   -0.3138    0.0000 C   0  0  0  0  0  0  0  0  0  0  0  0
   -3.1952    0.5910    0.0000 C   0  0  0  0  0  0  0  0  0  0  0  0
   -2.3155    0.8768    0.0000 C   0  0  0  0  0  0  0  0  0  0  0  0
   -0.4625    1.4234    0.0000 C   0  0  0  0  0  0  0  0  0  0  0  0
    0.4625    1.4234    0.0000 C   0  0  0  0  0  0  0  0  0  0  0  0
    0.7483    0.5437    0.0000 C   0  0  2  0  0  0  0  0  0  0  0  0
    1.6281    0.2579    0.0000 C   0  0  0  0  0  0  0  0  0  0  0  0
    2.3155    0.8768    0.0000 C   0  0  0  0  0  0  0  0  0  0  0  0
    3.1952    0.5910    0.0000 C   0  0  0  0  0  0  0  0  0  0  0  0
    3.3875   -0.3138    0.0000 C   0  0  0  0  0  0  0  0  0  0  0  0
    2.7001   -0.9328    0.0000 C   0  0  0  0  0  0  0  0  0  0  0  0
    1.8204   -0.6469    0.0000 C   0  0  0  0  0  0  0  0  0  0  0  0
   -1.3875   -4.5011    0.0000 C   0  0  0  0  0  0  0  0  0  0  0  0
   -2.3125   -4.5011    0.0000 C   0  0  0  0  0  0  0  0  0  0  0  0
  1  2  1  0  0  0  0
  2 33  2  0  0  0  0
  2  3  1  0  0  0  0
  3  4  2  0  0  0  0
  4  5  1  0  0  0  0
  5  6  1  0  0  0  0
  5 32  2  0  0  0  0
  6  7  2  0  0  0  0
  6  8  1  0  0  0  0
  6 15  1  0  0  0  0
  8 14  2  0  0  0  0
  8  9  1  0  0  0  0
  9 10  2  0  0  0  0
 10 11  1  0  0  0  0
 11 12  1  0  0  0  0
 11 13  2  0  0  0  0
 13 14  1  0  0  0  0
 15 25  1  0  0  0  0
 15 16  1  0  0  0  0
 16 17  1  1  0  0  0
 16 23  1  0  0  0  0
 17 22  2  0  0  0  0
 17 18  1  0  0  0  0
 18 19  2  0  0  0  0
 19 20  1  0  0  0  0
 20 21  2  0  0  0  0
 21 22  1  0  0  0  0
 23 24  1  0  0  0  0
 24 25  1  0  0  0  0
 25 26  1  6  0  0  0
 26 31  2  0  0  0  0
 26 27  1  0  0  0  0
 27 28  2  0  0  0  0
 28 29  1  0  0  0  0
 29 30  2  0  0  0  0
 30 31  1  0  0  0  0
 32 33  1  0  0  0  0
M  END
> <NMREDATA_VERSION>
1.1

> <NMREDATA_LEVEL>
0

> <NMREDATA_SOLVENT>
CDCl3

> <NMREDATA_FORMULA>
C30H30NOP

> <NMREDATA_SMILES>
Cc1ccc(cc1)P(=O)(N1[C@H](CC[C@@H]1c1ccccc1)c1ccccc1)c1ccc(cc1)C

> <NMREDATA_ASSIGNMENT>
P6, 21.90, 6

> <NMREDATA_1D_31P>
Larmor=243
21.90, L=P6

$$$$
