
 OpenBabel06112616442D

 22 23  0  0  0  0  0  0  0  0999 V2000
    1.0000   -1.0000    0.0000 O   0  0  0  0  0  0  0  0  0  0  0  0
    1.0000    0.0000    0.0000 P   0  0  0  0  0  0  0  0  0  0  0  0
    2.0000    0.0000    0.0000 O   0  0  0  0  0  0  0  0  0  0  0  0
    2.5000   -0.8660    0.0000 C   0  0  0  0  0  0  0  0  0  0  0  0
    3.5000   -0.8660    0.0000 C   0  0  0  0  0  0  0  0  0  0  0  0
    1.0000    1.0000    0.0000 O   0  0  0  0  0  0  0  0  0  0  0  0
    1.8660    1.5000    0.0000 C   0  0  0  0  0  0  0  0  0  0  0  0
    2.7321    1.0000    0.0000 C   0  0  0  0  0  0  0  0  0  0  0  0
    0.0000    0.0000    0.0000 C   0  0  0  0  0  0  0  0  0  0  0  0
   -0.5000    0.8660    0.0000 C   0  0  0  0  0  0  0  0  0  0  0  0
   -1.4945    0.9706    0.0000 N   0  0  0  0  0  0  0  0  0  0  0  0
   -1.7024    1.9487    0.0000 C   0  0  0  0  0  0  0  0  0  0  0  0
   -2.6160    2.3554    0.0000 C   0  0  0  0  0  0  0  0  0  0  0  0
   -3.4250    1.7677    0.0000 C   0  0  0  0  0  0  0  0  0  0  0  0
   -3.3205    0.7731    0.0000 F   0  0  0  0  0  0  0  0  0  0  0  0
   -4.3385    2.1744    0.0000 C   0  0  0  0  0  0  0  0  0  0  0  0
   -5.1476    1.5866    0.0000 F   0  0  0  0  0  0  0  0  0  0  0  0
   -4.4431    3.1689    0.0000 C   0  0  0  0  0  0  0  0  0  0  0  0
   -3.6341    3.7567    0.0000 C   0  0  0  0  0  0  0  0  0  0  0  0
   -2.7205    3.3500    0.0000 C   0  0  0  0  0  0  0  0  0  0  0  0
   -0.8364    2.4487    0.0000 O   0  0  0  0  0  0  0  0  0  0  0  0
   -0.0933    1.7796    0.0000 C   0  0  0  0  0  0  0  0  0  0  0  0
  1  2  2  0  0  0  0
  2  3  1  0  0  0  0
  2  6  1  0  0  0  0
  2  9  1  0  0  0  0
  3  4  1  0  0  0  0
  4  5  1  0  0  0  0
  6  7  1  0  0  0  0
  7  8  1  0  0  0  0
  9 10  1  0  0  0  0
 10 22  2  0  0  0  0
 10 11  1  0  0  0  0
 11 12  2  0  0  0  0
 12 13  1  0  0  0  0
 12 21  1  0  0  0  0
 13 20  2  0  0  0  0
 13 14  1  0  0  0  0
 14 15  1  0  0  0  0
 14 16  2  0  0  0  0
 16 17  1  0  0  0  0
 16 18  1  0  0  0  0
 18 19  2  0  0  0  0
 19 20  1  0  0  0  0
 21 22  1  0  0  0  0
M  END
> <NMREDATA_VERSION>
1.1

> <NMREDATA_LEVEL>
0

> <NMREDATA_SOLVENT>
CDCl3

> <NMREDATA_FORMULA>
C14H16F2NO4P

> <NMREDATA_SMILES>
CCOP(=O)(Cc1coc(n1)c1cccc(c1F)F)OCC

> <NMREDATA_ASSIGNMENT>
P2, 24.50, 2

> <NMREDATA_1D_31P>
Larmor=162
24.50, L=P2

$$$$
