
 OpenBabel06112616482D

 19 20  0  0  1  0  0  0  0  0999 V2000
    1.0000    0.0000    0.0000 P   0  0  0  0  0  0  0  0  0  0  0  0
    1.0000   -1.0000    0.0000 C   0  0  1  0  0  0  0  0  0  0  0  0
    1.5000   -1.8660    0.0000 C   0  0  2  0  0  0  0  0  0  0  0  0
    2.3660   -2.3660    0.0000 C   0  0  0  0  0  0  0  0  0  0  0  0
    2.3660   -3.3660    0.0000 O   0  0  0  0  0  0  0  0  0  0  0  0
    3.2321   -1.8660    0.0000 C   0  0  0  0  0  0  0  0  0  0  0  0
    3.2321   -0.8660    0.0000 C   0  0  0  0  0  0  0  0  0  0  0  0
    4.0981   -0.3660    0.0000 C   0  0  0  0  0  0  0  0  0  0  0  0
    4.9641   -0.8660    0.0000 C   0  0  0  0  0  0  0  0  0  0  0  0
    4.9641   -1.8660    0.0000 C   0  0  0  0  0  0  0  0  0  0  0  0
    4.0981   -2.3660    0.0000 C   0  0  0  0  0  0  0  0  0  0  0  0
    0.5000   -1.8660    0.0000 C   0  0  2  0  0  0  0  0  0  0  0  0
   -0.3660   -2.3660    0.0000 C   0  0  0  0  0  0  0  0  0  0  0  0
   -1.2321   -1.8660    0.0000 C   0  0  0  0  0  0  0  0  0  0  0  0
    2.0000    0.0000    0.0000 O   0  0  0  0  0  0  0  0  0  0  0  0
    2.5000    0.8660    0.0000 C   0  0  0  0  0  0  0  0  0  0  0  0
    1.0000    1.0000    0.0000 O   0  0  0  0  0  0  0  0  0  0  0  0
    0.0000    0.0000    0.0000 O   0  0  0  0  0  0  0  0  0  0  0  0
   -0.5000    0.8660    0.0000 C   0  0  0  0  0  0  0  0  0  0  0  0
  1 15  1  0  0  0  0
  1 17  2  0  0  0  0
  1 18  1  0  0  0  0
  2  1  1  1  0  0  0
  2  3  1  0  0  0  0
  2 12  1  0  0  0  0
  3  4  1  6  0  0  0
  3 12  1  0  0  0  0
  4  5  2  0  0  0  0
  4  6  1  0  0  0  0
  6 11  2  0  0  0  0
  6  7  1  0  0  0  0
  7  8  2  0  0  0  0
  8  9  1  0  0  0  0
  9 10  2  0  0  0  0
 10 11  1  0  0  0  0
 12 13  1  6  0  0  0
 13 14  1  0  0  0  0
 15 16  1  0  0  0  0
 18 19  1  0  0  0  0
M  END
> <NMREDATA_VERSION>
1.1

> <NMREDATA_LEVEL>
0

> <NMREDATA_SOLVENT>
CDCl3

> <NMREDATA_FORMULA>
C14H19O4P

> <NMREDATA_SMILES>
CC[C@H]1[C@H]([C@@H]1P(=O)(OC)OC)C(=O)c1ccccc1

> <NMREDATA_ASSIGNMENT>
P1, 31.05, 1

> <NMREDATA_1D_31P>
Larmor=162
31.05, L=P1

$$$$
