
 OpenBabel06112616482D

 36 40  0  0  1  0  0  0  0  0999 V2000
   -0.9781   -0.2079    0.0000 C   0  0  0  0  0  0  0  0  0  0  0  0
   -1.2872   -1.1590    0.0000 C   0  0  1  0  0  0  0  0  0  0  0  0
   -0.6994   -1.9680    0.0000 C   0  0  0  0  0  0  0  0  0  0  0  0
   -1.2872   -2.7770    0.0000 N   0  0  0  0  0  0  0  0  0  0  0  0
   -0.9781   -3.7281    0.0000 C   0  0  0  0  0  0  0  0  0  0  0  0
   -1.6473   -4.4712    0.0000 C   0  0  0  0  0  0  0  0  0  0  0  0
   -1.8552   -5.4494    0.0000 C   0  0  0  0  0  0  0  0  0  0  0  0
   -0.9041   -5.1403    0.0000 C   0  0  0  0  0  0  0  0  0  0  0  0
   -2.6254   -4.2633    0.0000 C   0  0  0  0  0  0  0  0  0  0  0  0
   -2.2382   -2.4680    0.0000 C   0  0  0  0  0  0  0  0  0  0  0  0
   -3.1042   -2.9680    0.0000 C   0  0  0  0  0  0  0  0  0  0  0  0
   -3.9703   -2.4680    0.0000 C   0  0  0  0  0  0  0  0  0  0  0  0
   -3.9703   -1.4680    0.0000 N   0  3  0  0  0  0  0  0  0  0  0  0
   -4.9213   -1.1590    0.0000 C   0  0  2  0  0  0  0  0  0  0  0  0
   -5.2303   -0.2079    0.0000 C   0  0  0  0  0  0  0  0  0  0  0  0
   -6.2085    0.0000    0.0000 C   0  0  0  0  0  0  0  0  0  0  0  0
   -6.5175    0.9511    0.0000 C   0  0  0  0  0  0  0  0  0  0  0  0
   -5.8484    1.6942    0.0000 C   0  0  0  0  0  0  0  0  0  0  0  0
   -4.8702    1.4863    0.0000 C   0  0  0  0  0  0  0  0  0  0  0  0
   -4.5612    0.5352    0.0000 C   0  0  0  0  0  0  0  0  0  0  0  0
   -5.5091   -1.9680    0.0000 C   0  0  0  0  0  0  0  0  0  0  0  0
   -4.9213   -2.7770    0.0000 N   0  0  0  0  0  0  0  0  0  0  0  0
   -5.2303   -3.7281    0.0000 C   0  0  0  0  0  0  0  0  0  0  0  0
   -6.2085   -3.9360    0.0000 C   0  0  0  0  0  0  0  0  0  0  0  0
   -6.9516   -4.6051    0.0000 C   0  0  0  0  0  0  0  0  0  0  0  0
   -6.0006   -4.9141    0.0000 C   0  0  0  0  0  0  0  0  0  0  0  0
   -6.8776   -3.1928    0.0000 C   0  0  0  0  0  0  0  0  0  0  0  0
   -3.1042   -0.9680    0.0000 P   0  0  3  0  0  0  0  0  0  0  0  0
   -2.6042   -0.1020    0.0000 O   0  0  0  0  0  0  0  0  0  0  0  0
   -3.6042   -0.1020    0.0000 O   0  5  0  0  0  0  0  0  0  0  0  0
   -2.2382   -1.4680    0.0000 N   0  0  0  0  0  0  0  0  0  0  0  0
   -1.6473    0.5352    0.0000 C   0  0  0  0  0  0  0  0  0  0  0  0
   -1.3383    1.4863    0.0000 C   0  0  0  0  0  0  0  0  0  0  0  0
   -0.3601    1.6942    0.0000 C   0  0  0  0  0  0  0  0  0  0  0  0
    0.3090    0.9511    0.0000 C   0  0  0  0  0  0  0  0  0  0  0  0
    0.0000    0.0000    0.0000 C   0  0  0  0  0  0  0  0  0  0  0  0
  1 36  2  0  0  0  0
  1 32  1  0  0  0  0
  2  1  1  1  0  0  0
  2  3  1  0  0  0  0
  2 31  1  0  0  0  0
  3  4  1  0  0  0  0
  4  5  1  0  0  0  0
  4 10  1  0  0  0  0
  5  6  1  0  0  0  0
  6  7  1  0  0  0  0
  6  8  1  0  0  0  0
  6  9  1  0  0  0  0
 10 31  1  0  0  0  0
 10 11  2  0  0  0  0
 11 12  1  0  0  0  0
 12 22  1  0  0  0  0
 12 13  2  0  0  0  0
 13 14  1  0  0  0  0
 13 28  1  0  0  0  0
 14 15  1  1  0  0  0
 14 21  1  0  0  0  0
 15 20  2  0  0  0  0
 15 16  1  0  0  0  0
 16 17  2  0  0  0  0
 17 18  1  0  0  0  0
 18 19  2  0  0  0  0
 19 20  1  0  0  0  0
 21 22  1  0  0  0  0
 22 23  1  0  0  0  0
 23 24  1  0  0  0  0
 24 25  1  0  0  0  0
 24 26  1  0  0  0  0
 24 27  1  0  0  0  0
 28 29  2  0  0  0  0
 28 30  1  0  0  0  0
 28 31  1  0  0  0  0
 32 33  2  0  0  0  0
 33 34  1  0  0  0  0
 34 35  2  0  0  0  0
 35 36  1  0  0  0  0
M  END
> <NMREDATA_VERSION>
1.1

> <NMREDATA_LEVEL>
0

> <NMREDATA_SOLVENT>
CDCl3

> <NMREDATA_FORMULA>
C29H39N4O2P

> <NMREDATA_SMILES>
CC(CN1C[C@@H](N2C1=CC1=[N+](P2(=O)[O-])[C@@H](CN1CC(C)(C)C)c1ccccc1)c1ccccc1)(C)C

> <NMREDATA_ASSIGNMENT>
P28, -15.31, 28

> <NMREDATA_1D_31P>
Larmor=162
-15.31, L=P28

$$$$
