
 OpenBabel06112616482D

 31 34  0  0  0  0  0  0  0  0999 V2000
   -3.8857   -1.9429    0.0000 O   0  0  0  0  0  0  0  0  0  0  0  0
   -4.3714   -1.1016    0.0000 C   0  0  0  0  0  0  0  0  0  0  0  0
   -2.9143   -1.9429    0.0000 C   0  0  0  0  0  0  0  0  0  0  0  0
   -2.4286   -1.1016    0.0000 C   0  0  0  0  0  0  0  0  0  0  0  0
   -1.4571   -1.1016    0.0000 C   0  0  0  0  0  0  0  0  0  0  0  0
   -0.9714   -1.9429    0.0000 C   0  0  0  0  0  0  0  0  0  0  0  0
    0.0000   -1.9429    0.0000 P   0  0  0  0  0  0  0  0  0  0  0  0
    0.0000   -2.9143    0.0000 O   0  0  0  0  0  0  0  0  0  0  0  0
    0.9714   -1.9429    0.0000 C   0  0  0  0  0  0  0  0  0  0  0  0
    1.4571   -1.1016    0.0000 C   0  0  0  0  0  0  0  0  0  0  0  0
    2.4286   -1.1016    0.0000 C   0  0  0  0  0  0  0  0  0  0  0  0
    2.9143   -1.9429    0.0000 C   0  0  0  0  0  0  0  0  0  0  0  0
    3.8857   -1.9429    0.0000 O   0  0  0  0  0  0  0  0  0  0  0  0
    4.3714   -2.7841    0.0000 C   0  0  0  0  0  0  0  0  0  0  0  0
    2.4286   -2.7841    0.0000 C   0  0  0  0  0  0  0  0  0  0  0  0
    1.4571   -2.7841    0.0000 C   0  0  0  0  0  0  0  0  0  0  0  0
    0.0000    0.0000    0.0000 C   0  0  0  0  0  0  0  0  0  0  0  0
   -0.8413    0.4857    0.0000 C   0  0  0  0  0  0  0  0  0  0  0  0
   -0.8413    1.4571    0.0000 C   0  0  0  0  0  0  0  0  0  0  0  0
   -1.6826    1.9429    0.0000 C   0  0  0  0  0  0  0  0  0  0  0  0
    0.0000    1.9429    0.0000 N   0  0  0  0  0  0  0  0  0  0  0  0
    0.8413    1.4571    0.0000 C   0  0  0  0  0  0  0  0  0  0  0  0
    1.6826    1.9429    0.0000 C   0  0  0  0  0  0  0  0  0  0  0  0
    2.5238    1.4571    0.0000 C   0  0  0  0  0  0  0  0  0  0  0  0
    2.5238    0.4857    0.0000 C   0  0  0  0  0  0  0  0  0  0  0  0
    3.3651    0.0000    0.0000 O   0  0  0  0  0  0  0  0  0  0  0  0
    4.2064    0.4857    0.0000 C   0  0  0  0  0  0  0  0  0  0  0  0
    1.6826    0.0000    0.0000 C   0  0  0  0  0  0  0  0  0  0  0  0
    0.8413    0.4857    0.0000 C   0  0  0  0  0  0  0  0  0  0  0  0
   -1.4571   -2.7841    0.0000 C   0  0  0  0  0  0  0  0  0  0  0  0
   -2.4286   -2.7841    0.0000 C   0  0  0  0  0  0  0  0  0  0  0  0
  1  2  1  0  0  0  0
  1  3  1  0  0  0  0
  3 31  2  0  0  0  0
  3  4  1  0  0  0  0
  4  5  2  0  0  0  0
  5  6  1  0  0  0  0
  6  7  1  0  0  0  0
  6 30  2  0  0  0  0
  7  8  2  0  0  0  0
  7  9  1  0  0  0  0
  7 17  1  0  0  0  0
  9 16  2  0  0  0  0
  9 10  1  0  0  0  0
 10 11  2  0  0  0  0
 11 12  1  0  0  0  0
 12 13  1  0  0  0  0
 12 15  2  0  0  0  0
 13 14  1  0  0  0  0
 15 16  1  0  0  0  0
 17 29  2  0  0  0  0
 17 18  1  0  0  0  0
 18 19  2  0  0  0  0
 19 20  1  0  0  0  0
 19 21  1  0  0  0  0
 21 22  2  0  0  0  0
 22 29  1  0  0  0  0
 22 23  1  0  0  0  0
 23 24  2  0  0  0  0
 24 25  1  0  0  0  0
 25 26  1  0  0  0  0
 25 28  2  0  0  0  0
 26 27  1  0  0  0  0
 28 29  1  0  0  0  0
 30 31  1  0  0  0  0
M  END
> <NMREDATA_VERSION>
1.1

> <NMREDATA_LEVEL>
0

> <NMREDATA_SOLVENT>
CDCl3

> <NMREDATA_FORMULA>
C25H24NO4P

> <NMREDATA_SMILES>
COc1ccc(cc1)P(=O)(c1cc(C)nc2c1cc(OC)cc2)c1ccc(cc1)OC

> <NMREDATA_ASSIGNMENT>
P7, 29.60, 7

> <NMREDATA_1D_31P>
Larmor=162
29.60, L=P7

$$$$
