
 OpenBabel06112616442D

 49 56  0  0  0  0  0  0  0  0999 V2000
    1.9310   -4.3102    0.0000 O   0  0  0  0  0  0  0  0  0  0  0  0
    0.9655   -4.3102    0.0000 C   0  0  0  0  0  0  0  0  0  0  0  0
    0.4828   -5.1463    0.0000 C   0  0  0  0  0  0  0  0  0  0  0  0
   -0.4828   -5.1463    0.0000 C   0  0  0  0  0  0  0  0  0  0  0  0
   -0.9655   -4.3102    0.0000 C   0  0  0  0  0  0  0  0  0  0  0  0
   -0.4828   -3.4740    0.0000 C   0  0  0  0  0  0  0  0  0  0  0  0
    0.4828   -3.4740    0.0000 C   0  0  0  0  0  0  0  0  0  0  0  0
    1.4483   -1.8017    0.0000 C   0  0  0  0  0  0  0  0  0  0  0  0
    0.9655   -0.9655    0.0000 C   0  0  0  0  0  0  0  0  0  0  0  0
    0.0000   -0.9655    0.0000 P   0  0  0  0  0  0  0  0  0  0  0  0
    0.0000   -1.9310    0.0000 O   0  0  0  0  0  0  0  0  0  0  0  0
   -0.9655   -0.9655    0.0000 C   0  0  0  0  0  0  0  0  0  0  0  0
   -1.4483   -0.1294    0.0000 C   0  0  0  0  0  0  0  0  0  0  0  0
   -2.4138   -0.1294    0.0000 C   0  0  0  0  0  0  0  0  0  0  0  0
   -2.8966   -0.9655    0.0000 C   0  0  0  0  0  0  0  0  0  0  0  0
   -2.4138   -1.8017    0.0000 C   0  0  0  0  0  0  0  0  0  0  0  0
   -1.4483   -1.8017    0.0000 C   0  0  0  0  0  0  0  0  0  0  0  0
    0.0000    0.0000    0.0000 C   0  0  0  0  0  0  0  0  0  0  0  0
    0.8362    0.4828    0.0000 C   0  0  0  0  0  0  0  0  0  0  0  0
    0.8362    1.4483    0.0000 C   0  0  0  0  0  0  0  0  0  0  0  0
    0.0000    1.9310    0.0000 C   0  0  0  0  0  0  0  0  0  0  0  0
   -0.8362    1.4483    0.0000 C   0  0  0  0  0  0  0  0  0  0  0  0
   -0.8362    0.4828    0.0000 C   0  0  0  0  0  0  0  0  0  0  0  0
    1.4483   -0.1294    0.0000 C   0  0  0  0  0  0  0  0  0  0  0  0
    2.4138   -0.1294    0.0000 C   0  0  0  0  0  0  0  0  0  0  0  0
    2.8966   -0.9655    0.0000 C   0  0  0  0  0  0  0  0  0  0  0  0
    2.4138   -1.8017    0.0000 C   0  0  0  0  0  0  0  0  0  0  0  0
    3.0599   -2.5192    0.0000 O   0  0  0  0  0  0  0  0  0  0  0  0
    3.9419   -2.1265    0.0000 C   0  0  0  0  0  0  0  0  0  0  0  0
    5.8729   -2.1265    0.0000 C   0  0  0  0  0  0  0  0  0  0  0  0
    6.3557   -2.9627    0.0000 C   0  0  0  0  0  0  0  0  0  0  0  0
    7.3212   -2.9627    0.0000 C   0  0  0  0  0  0  0  0  0  0  0  0
    7.8040   -2.1265    0.0000 C   0  0  0  0  0  0  0  0  0  0  0  0
    7.3212   -1.2903    0.0000 C   0  0  0  0  0  0  0  0  0  0  0  0
    6.3557   -1.2903    0.0000 C   0  0  0  0  0  0  0  0  0  0  0  0
    4.4247   -2.9627    0.0000 C   0  0  0  0  0  0  0  0  0  0  0  0
    3.9419   -3.7988    0.0000 C   0  0  0  0  0  0  0  0  0  0  0  0
    4.4247   -4.6350    0.0000 C   0  0  0  0  0  0  0  0  0  0  0  0
    5.3902   -4.6350    0.0000 C   0  0  0  0  0  0  0  0  0  0  0  0
    5.8729   -3.7988    0.0000 C   0  0  0  0  0  0  0  0  0  0  0  0
    5.3902   -2.9627    0.0000 C   0  0  0  0  0  0  0  0  0  0  0  0
    3.8410   -1.1663    0.0000 O   0  0  0  0  0  0  0  0  0  0  0  0
   -0.9655   -2.6378    0.0000 C   0  0  0  0  0  0  0  0  0  0  0  0
   -1.9310   -2.6378    0.0000 C   0  0  0  0  0  0  0  0  0  0  0  0
   -2.4138   -3.4740    0.0000 C   0  0  0  0  0  0  0  0  0  0  0  0
   -1.9310   -4.3102    0.0000 O   0  0  0  0  0  0  0  0  0  0  0  0
    2.4138   -5.1463    0.0000 C   0  0  0  0  0  0  0  0  0  0  0  0
    1.9310   -5.9825    0.0000 C   0  0  0  0  0  0  0  0  0  0  0  0
    3.3793   -5.1463    0.0000 C   0  0  0  0  0  0  0  0  0  0  0  0
  1  2  1  0  0  0  0
  1 47  1  0  0  0  0
  2  7  2  0  0  0  0
  2  3  1  0  0  0  0
  3  4  2  0  0  0  0
  4  5  1  0  0  0  0
  5 46  1  0  0  0  0
  5  6  2  0  0  0  0
  6  7  1  0  0  0  0
  6 43  1  0  0  0  0
  7  8  1  0  0  0  0
  8 27  2  0  0  0  0
  8  9  1  0  0  0  0
  9 10  1  0  0  0  0
  9 24  2  0  0  0  0
 10 11  2  0  0  0  0
 10 12  1  0  0  0  0
 10 18  1  0  0  0  0
 12 17  2  0  0  0  0
 12 13  1  0  0  0  0
 13 14  2  0  0  0  0
 14 15  1  0  0  0  0
 15 16  2  0  0  0  0
 16 17  1  0  0  0  0
 18 23  2  0  0  0  0
 18 19  1  0  0  0  0
 19 20  2  0  0  0  0
 20 21  1  0  0  0  0
 21 22  2  0  0  0  0
 22 23  1  0  0  0  0
 24 25  1  0  0  0  0
 25 26  2  0  0  0  0
 26 42  1  0  0  0  0
 26 27  1  0  0  0  0
 27 28  1  0  0  0  0
 28 29  1  0  0  0  0
 29 30  1  0  0  0  0
 29 36  1  0  0  0  0
 29 42  1  0  0  0  0
 30 35  2  0  0  0  0
 30 31  1  0  0  0  0
 31 32  2  0  0  0  0
 32 33  1  0  0  0  0
 33 34  2  0  0  0  0
 34 35  1  0  0  0  0
 36 41  2  0  0  0  0
 36 37  1  0  0  0  0
 37 38  2  0  0  0  0
 38 39  1  0  0  0  0
 39 40  2  0  0  0  0
 40 41  1  0  0  0  0
 43 44  1  0  0  0  0
 44 45  1  0  0  0  0
 45 46  1  0  0  0  0
 47 48  1  0  0  0  0
 47 49  1  0  0  0  0
M  END
> <NMREDATA_VERSION>
1.1

> <NMREDATA_LEVEL>
0

> <NMREDATA_SOLVENT>
CD2Cl2

> <NMREDATA_FORMULA>
C43H37O5P

> <NMREDATA_SMILES>
CC(Oc1ccc2c(c1c1c3OC(Oc3ccc1P(=O)(c1ccccc1)c1ccccc1)(c1ccccc1)c1ccccc1)CCCO2)C

> <NMREDATA_ASSIGNMENT>
P10, 26.50, 10

> <NMREDATA_1D_31P>
Larmor=243
26.50, L=P10

$$$$
