
 OpenBabel06112616462D

 15 16  0  0  1  0  0  0  0  0999 V2000
    2.2760   -0.5681    0.0000 C   0  0  0  0  0  0  0  0  0  0  0  0
    1.4942   -1.1916    0.0000 O   0  0  0  0  0  0  0  0  0  0  0  0
    0.5633   -0.8262    0.0000 P   0  0  2  0  0  0  0  0  0  0  0  0
    1.3452   -0.2027    0.0000 O   0  0  0  0  0  0  0  0  0  0  0  0
    0.2686   -1.7818    0.0000 O   0  0  0  0  0  0  0  0  0  0  0  0
   -0.6623   -2.1472    0.0000 C   0  0  0  0  0  0  0  0  0  0  0  0
   -1.5283   -1.6472    0.0000 C   0  0  2  0  0  0  0  0  0  0  0  0
   -2.4227   -2.0945    0.0000 C   0  0  0  0  0  0  0  0  0  0  0  0
   -3.1245   -1.3821    0.0000 O   0  0  0  0  0  0  0  0  0  0  0  0
   -2.6639   -0.4945    0.0000 C   0  0  0  0  0  0  0  0  0  0  0  0
   -3.1112    0.3999    0.0000 O   0  0  0  0  0  0  0  0  0  0  0  0
   -1.6774   -0.6583    0.0000 C   0  0  0  0  0  0  0  0  0  0  0  0
   -0.9972    0.0747    0.0000 C   0  0  0  0  0  0  0  0  0  0  0  0
   -1.3625    1.0056    0.0000 C   0  0  0  0  0  0  0  0  0  0  0  0
    0.0000    0.0000    0.0000 O   0  0  0  0  0  0  0  0  0  0  0  0
  1  2  1  0  0  0  0
  2  3  1  0  0  0  0
  3 15  1  0  0  0  0
  3  4  2  1  0  0  0
  3  5  1  0  0  0  0
  5  6  1  0  0  0  0
  7  6  1  6  0  0  0
  7  8  1  0  0  0  0
  7 12  1  0  0  0  0
  8  9  1  0  0  0  0
  9 10  1  0  0  0  0
 10 11  2  0  0  0  0
 10 12  1  0  0  0  0
 12 13  2  0  0  0  0
 13 14  1  0  0  0  0
 13 15  1  0  0  0  0
M  END
> <NMREDATA_VERSION>
1.1

> <NMREDATA_LEVEL>
0

> <NMREDATA_SOLVENT>
CDCl3

> <NMREDATA_FORMULA>
C8H11O6P

> <NMREDATA_SMILES>
CC1=C2[C@H](CO[P@](=O)(O1)OC)COC2=O

> <NMREDATA_ASSIGNMENT>
P3, -7.68, 3

> <NMREDATA_1D_31P>
Larmor=not_known
-7.68, L=P3

$$$$
