
 OpenBabel06112616432D

 15 16  0  0  1  0  0  0  0  0999 V2000
    0.4553   -3.0881    0.0000 C   0  0  0  0  0  0  0  0  0  0  0  0
    0.0465   -2.4106    0.0000 C   0  0  0  0  0  0  0  0  0  0  0  0
    0.0312   -1.6195    0.0000 C   0  0  3  0  0  0  0  0  0  0  0  0
    0.7789   -1.3604    0.0000 C   0  0  0  0  0  0  0  0  0  0  0  0
    1.2318   -0.7112    0.0000 C   0  0  3  0  0  0  0  0  0  0  0  0
    1.2166    0.0798    0.0000 C   0  0  0  0  0  0  0  0  0  0  0  0
    0.7389    0.7111    0.0000 C   0  0  0  0  0  0  0  0  0  0  0  0
   -0.0182    0.9411    0.0000 C   0  0  1  0  0  0  0  0  0  0  0  0
   -0.0351    1.8224    0.0000 C   0  0  0  0  0  0  0  0  0  0  0  0
   -0.7661    0.6820    0.0000 C   0  0  0  0  0  0  0  0  0  0  0  0
   -1.2187    0.0328    0.0000 O   0  0  0  0  0  0  0  0  0  0  0  0
   -1.2035   -0.7582    0.0000 P   0  0  3  0  0  0  0  0  0  0  0  0
   -1.9874   -1.1613    0.0000 O   0  0  0  0  0  0  0  0  0  0  0  0
   -0.7261   -1.3894    0.0000 O   0  0  0  0  0  0  0  0  0  0  0  0
    0.0000    0.0000    0.0000 O   0  0  0  0  0  0  0  0  0  0  0  0
  1  2  2  0  0  0  0
  2  3  1  0  0  0  0
  3 14  1  0  0  0  0
  3  4  1  0  0  0  0
  4  5  1  0  0  0  0
  5 15  1  0  0  0  0
  5  6  1  0  0  0  0
  6  7  2  0  0  0  0
  7  8  1  0  0  0  0
  8  9  1  6  0  0  0
  8 10  1  0  0  0  0
 10 11  1  0  0  0  0
 11 12  1  0  0  0  0
 12 13  2  0  0  0  0
 12 14  1  0  0  0  0
 12 15  1  0  0  0  0
M  END
> <NMREDATA_VERSION>
1.1

> <NMREDATA_LEVEL>
0

> <NMREDATA_SOLVENT>
CDCl3

> <NMREDATA_FORMULA>
C10H15O4P

> <NMREDATA_SMILES>
C=CC1CC2C=C[C@H](COP(=O)(O1)O2)C

> <NMREDATA_ASSIGNMENT>
P12, -8.05, 12

> <NMREDATA_1D_31P>
Larmor=162
-8.05, L=P12

$$$$
