
 OpenBabel06112616452D

 24 26  0  0  0  0  0  0  0  0999 V2000
    1.4013   -1.0181    0.0000 C    0  0  0  0  0  0  0  0  0  0  0  0
    0.4067   -0.9135    0.0000 C    0  0  0  0  0  0  0  0  0  0  0  0
   -0.1810   -1.7226    0.0000 C    0  0  0  0  0  0  0  0  0  0  0  0
   -1.1756   -1.6180    0.0000 C    0  0  0  0  0  0  0  0  0  0  0  0
   -1.7634   -2.4271    0.0000 C    0  0  0  0  0  0  0  0  0  0  0  0
   -1.5823   -0.7045    0.0000 C    0  0  0  0  0  0  0  0  0  0  0  0
   -2.5768   -0.6000    0.0000 N    0  0  0  0  0  0  0  0  0  0  0  0
   -3.2460   -1.3431    0.0000 P    0  0  3  0  0  0  0  0  0  0  0  0
   -3.0380   -2.3213    0.0000 Br   0  0  0  0  0  0  0  0  0  0  0  0
   -4.1595   -0.9364    0.0000 N    0  0  0  0  0  0  0  0  0  0  0  0
   -5.0255   -1.4364    0.0000 C    0  0  0  0  0  0  0  0  0  0  0  0
   -5.0255   -2.4364    0.0000 C    0  0  0  0  0  0  0  0  0  0  0  0
   -4.1595   -2.9364    0.0000 C    0  0  0  0  0  0  0  0  0  0  0  0
   -5.8916   -2.9364    0.0000 C    0  0  0  0  0  0  0  0  0  0  0  0
   -6.7576   -2.4364    0.0000 C    0  0  0  0  0  0  0  0  0  0  0  0
   -7.6236   -2.9364    0.0000 C    0  0  0  0  0  0  0  0  0  0  0  0
   -6.7576   -1.4364    0.0000 C    0  0  0  0  0  0  0  0  0  0  0  0
   -5.8916   -0.9364    0.0000 C    0  0  0  0  0  0  0  0  0  0  0  0
   -5.8916    0.0636    0.0000 C    0  0  0  0  0  0  0  0  0  0  0  0
   -4.0550    0.0582    0.0000 C    0  0  0  0  0  0  0  0  0  0  0  0
   -3.0768    0.2661    0.0000 C    0  0  0  0  0  0  0  0  0  0  0  0
   -0.9945    0.1045    0.0000 C    0  0  0  0  0  0  0  0  0  0  0  0
   -1.4013    1.0181    0.0000 C    0  0  0  0  0  0  0  0  0  0  0  0
    0.0000    0.0000    0.0000 C    0  0  0  0  0  0  0  0  0  0  0  0
  1  2  1  0  0  0  0
  2 24  2  0  0  0  0
  2  3  1  0  0  0  0
  3  4  2  0  0  0  0
  4  5  1  0  0  0  0
  4  6  1  0  0  0  0
  6  7  1  0  0  0  0
  6 22  2  0  0  0  0
  7 21  1  0  0  0  0
  7  8  1  0  0  0  0
  8  9  1  0  0  0  0
  8 10  1  0  0  0  0
 10 11  1  0  0  0  0
 10 20  1  0  0  0  0
 11 18  2  0  0  0  0
 11 12  1  0  0  0  0
 12 13  1  0  0  0  0
 12 14  2  0  0  0  0
 14 15  1  0  0  0  0
 15 16  1  0  0  0  0
 15 17  2  0  0  0  0
 17 18  1  0  0  0  0
 18 19  1  0  0  0  0
 20 21  2  0  0  0  0
 22 23  1  0  0  0  0
 22 24  1  0  0  0  0
M  END
> <NMREDATA_VERSION>
1.1

> <NMREDATA_LEVEL>
0

> <NMREDATA_SOLVENT>
CDCl3

> <NMREDATA_FORMULA>
C20H24BrN2P

> <NMREDATA_SMILES>
BrP1N(C=CN1c1c(C)cc(cc1C)C)c1c(C)cc(cc1C)C

> <NMREDATA_ASSIGNMENT>
P8, 174.60, 8

> <NMREDATA_1D_31P>
Larmor=202
174.60, L=P8

$$$$
