
 OpenBabel06112616482D

 48 54  0  0  1  0  0  0  0  0999 V2000
   -2.0990   -4.0891    0.0000 C   0  0  0  0  0  0  0  0  0  0  0  0
   -1.0990   -4.0891    0.0000 C   0  0  0  0  0  0  0  0  0  0  0  0
   -0.5990   -3.2230    0.0000 C   0  0  3  0  0  0  0  0  0  0  0  0
    0.4010   -3.2230    0.0000 C   0  0  0  0  0  0  0  0  0  0  0  0
    0.9010   -2.3570    0.0000 N   0  0  3  0  0  0  0  0  0  0  0  0
    0.4010   -1.4910    0.0000 C   0  0  0  0  0  0  0  0  0  0  0  0
   -0.5990   -1.4910    0.0000 C   0  0  0  0  0  0  0  0  0  0  0  0
   -1.0990   -2.3570    0.0000 C   0  0  3  0  0  0  0  0  0  0  0  0
   -0.5441   -1.6611    0.0000 C   0  0  0  0  0  0  0  0  0  0  0  0
    0.3460   -1.6611    0.0000 C   0  0  1  0  0  0  0  0  0  0  0  0
    0.7799   -0.7601    0.0000 C   0  0  1  0  0  0  0  0  0  0  0  0
    0.2166    0.0661    0.0000 N   0  0  0  0  0  0  0  0  0  0  0  0
    0.6505    0.9671    0.0000 C   0  0  0  0  0  0  0  0  0  0  0  0
    0.0872    1.7933    0.0000 C   0  0  0  0  0  0  0  0  0  0  0  0
    0.5210    2.6943    0.0000 C   0  0  0  0  0  0  0  0  0  0  0  0
   -0.0423    3.5205    0.0000 C   0  0  0  0  0  0  0  0  0  0  0  0
   -1.0395    3.4458    0.0000 C   0  0  0  0  0  0  0  0  0  0  0  0
   -1.4734    2.5448    0.0000 C   0  0  0  0  0  0  0  0  0  0  0  0
   -0.9100    1.7186    0.0000 C   0  0  0  0  0  0  0  0  0  0  0  0
   -1.3439    0.8176    0.0000 P   0  0  0  0  0  0  0  0  0  0  0  0
   -0.7806   -0.0086    0.0000 C   0  0  0  0  0  0  0  0  0  0  0  0
   -1.2145   -0.9096    0.0000 C   0  0  0  0  0  0  0  0  0  0  0  0
   -0.6512   -1.7358    0.0000 C   0  0  0  0  0  0  0  0  0  0  0  0
    0.3460   -1.6611    0.0000 C   0  0  0  0  0  0  0  0  0  0  0  0
    0.7799   -0.7601    0.0000 C   0  0  0  0  0  0  0  0  0  0  0  0
    0.2166    0.0661    0.0000 C   0  0  0  0  0  0  0  0  0  0  0  0
    0.6505    0.9671    0.0000 O   0  0  0  0  0  0  0  0  0  0  0  0
    0.0872    1.7933    0.0000 C   0  0  0  0  0  0  0  0  0  0  0  0
   -2.3411    0.7429    0.0000 C   0  0  0  0  0  0  0  0  0  0  0  0
   -2.9045    1.5691    0.0000 C   0  0  0  0  0  0  0  0  0  0  0  0
   -3.9017    1.4944    0.0000 C   0  0  0  0  0  0  0  0  0  0  0  0
   -4.3355    0.5934    0.0000 C   0  0  0  0  0  0  0  0  0  0  0  0
   -3.7722   -0.2328    0.0000 C   0  0  0  0  0  0  0  0  0  0  0  0
   -2.7750   -0.1581    0.0000 C   0  0  0  0  0  0  0  0  0  0  0  0
   -2.2117   -0.9843    0.0000 O   0  0  0  0  0  0  0  0  0  0  0  0
   -1.2145   -0.9096    0.0000 C   0  0  0  0  0  0  0  0  0  0  0  0
   -0.8607   -0.4969    0.0000 C   0  0  0  0  0  0  0  0  0  0  0  0
   -1.7215    0.0000    0.0000 C   0  0  0  0  0  0  0  0  0  0  0  0
   -1.7215    0.9939    0.0000 C   0  0  0  0  0  0  0  0  0  0  0  0
   -0.8607    1.4908    0.0000 N   0  0  0  0  0  0  0  0  0  0  0  0
    0.0000    0.9939    0.0000 C   0  0  0  0  0  0  0  0  0  0  0  0
    0.8607    1.4908    0.0000 C   0  0  0  0  0  0  0  0  0  0  0  0
    1.7215    0.9939    0.0000 C   0  0  0  0  0  0  0  0  0  0  0  0
    1.7215    0.0000    0.0000 C   0  0  0  0  0  0  0  0  0  0  0  0
    2.5822   -0.4969    0.0000 O   0  0  0  0  0  0  0  0  0  0  0  0
    3.1421    0.3242    0.0000 C   0  0  0  0  0  0  0  0  0  0  0  0
    0.8607   -0.4969    0.0000 C   0  0  0  0  0  0  0  0  0  0  0  0
    0.0000    0.0000    0.0000 C   0  0  0  0  0  0  0  0  0  0  0  0
  1  2  2  0  0  0  0
  2  3  1  0  0  0  0
  3  8  1  0  0  0  0
  3  4  1  0  0  0  0
  4  5  1  0  0  0  0
  5 10  1  0  0  0  0
  5  6  1  0  0  0  0
  6  7  1  0  0  0  0
  7  8  1  0  0  0  0
  8  9  1  0  0  0  0
  9 10  1  0  0  0  0
 10 11  1  1  0  0  0
 11 12  1  6  0  0  0
 11 37  1  0  0  0  0
 12 13  1  0  0  0  0
 13 14  1  0  0  0  0
 14 19  2  0  0  0  0
 14 15  1  0  0  0  0
 15 16  2  0  0  0  0
 16 17  1  0  0  0  0
 17 18  2  0  0  0  0
 18 19  1  0  0  0  0
 19 20  1  0  0  0  0
 20 21  1  0  0  0  0
 20 29  1  0  0  0  0
 21 26  2  0  0  0  0
 21 22  1  0  0  0  0
 22 23  2  0  0  0  0
 23 24  1  0  0  0  0
 24 25  2  0  0  0  0
 25 26  1  0  0  0  0
 26 27  1  0  0  0  0
 27 28  1  0  0  0  0
 29 34  2  0  0  0  0
 29 30  1  0  0  0  0
 30 31  2  0  0  0  0
 31 32  1  0  0  0  0
 32 33  2  0  0  0  0
 33 34  1  0  0  0  0
 34 35  1  0  0  0  0
 35 36  1  0  0  0  0
 37 48  2  0  0  0  0
 37 38  1  0  0  0  0
 38 39  2  0  0  0  0
 39 40  1  0  0  0  0
 40 41  2  0  0  0  0
 41 48  1  0  0  0  0
 41 42  1  0  0  0  0
 42 43  2  0  0  0  0
 43 44  1  0  0  0  0
 44 45  1  0  0  0  0
 44 47  2  0  0  0  0
 45 46  1  0  0  0  0
 47 48  1  0  0  0  0
M  END
> <NMREDATA_VERSION>
1.1

> <NMREDATA_LEVEL>
0

> <NMREDATA_SOLVENT>
CDCl3

> <NMREDATA_FORMULA>
C41H44N3O3P

> <NMREDATA_SMILES>
COc1ccc2c(c1)c(ccn2)[C@@H]([C@@H]1CC2CCN1CC2C=C)NCc1ccccc1P(c1ccccc1OC)c1ccccc1OC

> <NMREDATA_ASSIGNMENT>
P20, -36.22, 20

> <NMREDATA_1D_31P>
Larmor=303MHz
-36.22, L=P20

$$$$
