
 OpenBabel06112616442D

 21 23  0  0  0  0  0  0  0  0999 V2000
   -0.9689    0.0000    0.0000 O   0  0  0  0  0  0  0  0  0  0  0  0
    0.0000    0.0000    0.0000 P   0  0  0  0  0  0  0  0  0  0  0  0
    0.0000   -0.9689    0.0000 N   0  0  0  0  0  0  0  0  0  0  0  0
   -0.8391   -1.4535    0.0000 C   0  0  0  0  0  0  0  0  0  0  0  0
   -0.8391   -2.4230    0.0000 C   0  0  0  0  0  0  0  0  0  0  0  0
   -1.6787   -2.9075    0.0000 C   0  0  0  0  0  0  0  0  0  0  0  0
   -2.5178   -2.4230    0.0000 C   0  0  0  0  0  0  0  0  0  0  0  0
   -2.5178   -1.4535    0.0000 C   0  0  0  0  0  0  0  0  0  0  0  0
   -1.6787   -0.9689    0.0000 C   0  0  0  0  0  0  0  0  0  0  0  0
    0.8396   -2.4230    0.0000 C   0  0  0  0  0  0  0  0  0  0  0  0
    0.8396   -1.4535    0.0000 C   0  0  0  0  0  0  0  0  0  0  0  0
    1.6792   -0.9689    0.0000 C   0  0  0  0  0  0  0  0  0  0  0  0
    2.5183   -1.4535    0.0000 C   0  0  0  0  0  0  0  0  0  0  0  0
    2.5183   -2.4230    0.0000 C   0  0  0  0  0  0  0  0  0  0  0  0
    1.6792   -2.9075    0.0000 C   0  0  0  0  0  0  0  0  0  0  0  0
    0.9689    0.0000    0.0000 O   0  0  0  0  0  0  0  0  0  0  0  0
    1.4534    0.8391    0.0000 C   0  0  0  0  0  0  0  0  0  0  0  0
    2.4224    0.8391    0.0000 C   0  0  0  0  0  0  0  0  0  0  0  0
    0.0000    0.9689    0.0000 O   0  0  0  0  0  0  0  0  0  0  0  0
   -0.8391    1.4534    0.0000 C   0  0  0  0  0  0  0  0  0  0  0  0
   -1.6783    0.9689    0.0000 C   0  0  0  0  0  0  0  0  0  0  0  0
  1  2  2  0  0  0  0
  2  3  1  0  0  0  0
  2 16  1  0  0  0  0
  2 19  1  0  0  0  0
  3 11  1  0  0  0  0
  3  4  1  0  0  0  0
  4  9  2  0  0  0  0
  4  5  1  0  0  0  0
  5  6  2  0  0  0  0
  5 10  1  0  0  0  0
  6  7  1  0  0  0  0
  7  8  2  0  0  0  0
  8  9  1  0  0  0  0
 10 15  2  0  0  0  0
 10 11  1  0  0  0  0
 11 12  2  0  0  0  0
 12 13  1  0  0  0  0
 13 14  2  0  0  0  0
 14 15  1  0  0  0  0
 16 17  1  0  0  0  0
 17 18  1  0  0  0  0
 19 20  1  0  0  0  0
 20 21  1  0  0  0  0
M  END
> <NMREDATA_VERSION>
1.1

> <NMREDATA_LEVEL>
0

> <NMREDATA_SOLVENT>
CDCl3

> <NMREDATA_FORMULA>
C16H18NO3P

> <NMREDATA_SMILES>
CCOP(=O)(n1c2ccccc2c2c1cccc2)OCC

> <NMREDATA_ASSIGNMENT>
P2, -2.80, 2

> <NMREDATA_1D_31P>
Larmor=162
-2.80, L=P2

$$$$
