
 OpenBabel06112616472D

 34 37  0  0  0  0  0  0  0  0999 V2000
    8.2942   -4.0000    0.0000 C   0  0  0  0  0  0  0  0  0  0  0  0
    7.4282   -4.5000    0.0000 C   0  0  0  0  0  0  0  0  0  0  0  0
    6.5622   -4.0000    0.0000 C   0  0  0  0  0  0  0  0  0  0  0  0
    6.5622   -3.0000    0.0000 C   0  0  0  0  0  0  0  0  0  0  0  0
    5.6962   -2.5000    0.0000 C   0  0  0  0  0  0  0  0  0  0  0  0
    4.8301   -3.0000    0.0000 C   0  0  0  0  0  0  0  0  0  0  0  0
    4.8301   -4.0000    0.0000 C   0  0  0  0  0  0  0  0  0  0  0  0
    3.9641   -4.5000    0.0000 C   0  0  0  0  0  0  0  0  0  0  0  0
    3.0981   -4.0000    0.0000 C   0  0  0  0  0  0  0  0  0  0  0  0
    3.0981   -3.0000    0.0000 C   0  0  0  0  0  0  0  0  0  0  0  0
    2.2321   -2.5000    0.0000 C   0  0  0  0  0  0  0  0  0  0  0  0
    2.2321   -1.5000    0.0000 C   0  0  0  0  0  0  0  0  0  0  0  0
    2.2321   -0.5000    0.0000 N   0  0  0  0  0  0  0  0  0  0  0  0
    1.3660   -3.0000    0.0000 C   0  0  0  0  0  0  0  0  0  0  0  0
    0.5000   -2.5000    0.0000 F   0  0  0  0  0  0  0  0  0  0  0  0
    1.3660   -4.0000    0.0000 C   0  0  0  0  0  0  0  0  0  0  0  0
    2.2321   -4.5000    0.0000 C   0  0  0  0  0  0  0  0  0  0  0  0
    3.9641   -5.5000    0.0000 C   0  0  0  0  0  0  0  0  0  0  0  0
    4.8301   -6.0000    0.0000 C   0  0  0  0  0  0  0  0  0  0  0  0
    5.6962   -5.5000    0.0000 C   0  0  0  0  0  0  0  0  0  0  0  0
    5.6962   -4.5000    0.0000 C   0  0  0  0  0  0  0  0  0  0  0  0
    3.9641   -2.5000    0.0000 C   0  0  0  0  0  0  0  0  0  0  0  0
    3.9641   -1.5000    0.0000 C   0  0  0  0  0  0  0  0  0  0  0  0
    4.8301   -1.0000    0.0000 C   0  0  0  0  0  0  0  0  0  0  0  0
    5.6962   -1.5000    0.0000 C   0  0  0  0  0  0  0  0  0  0  0  0
    7.4282   -2.5000    0.0000 C   0  0  0  0  0  0  0  0  0  0  0  0
    8.2942   -3.0000    0.0000 C   0  0  0  0  0  0  0  0  0  0  0  0
   11.8923   -0.5000    0.0000 P   0  0  0  0  0  1  0  0  0  0  0  0
   11.0263   -1.0000    0.0000 C   0  0  0  0  0  0  0  0  0  0  0  0
   11.0263   -2.0000    0.0000 C   0  0  0  0  0  0  0  0  0  0  0  0
   10.1603   -2.5000    0.0000 C   0  0  0  0  0  0  0  0  0  0  0  0
    9.2942   -2.0000    0.0000 C   0  0  0  0  0  0  0  0  0  0  0  0
    9.2942   -1.0000    0.0000 C   0  0  0  0  0  0  0  0  0  0  0  0
   10.1603   -0.5000    0.0000 C   0  0  0  0  0  0  0  0  0  0  0  0
  1 27  1  0  0  0  0
  1  2  1  0  0  0  0
  2  3  1  0  0  0  0
  3  4  1  0  0  0  0
  4  5  1  0  0  0  0
  4 26  1  0  0  0  0
  5 25  2  0  0  0  0
  5  6  1  0  0  0  0
  6  7  1  0  0  0  0
  6 22  2  0  0  0  0
  7 21  2  0  0  0  0
  7  8  1  0  0  0  0
  8  9  1  0  0  0  0
  8 18  2  0  0  0  0
  9 17  2  0  0  0  0
  9 10  1  0  0  0  0
 10 11  2  0  0  0  0
 11 12  1  0  0  0  0
 11 14  1  0  0  0  0
 12 13  3  0  0  0  0
 14 15  1  0  0  0  0
 14 16  2  0  0  0  0
 16 17  1  0  0  0  0
 18 19  1  0  0  0  0
 19 20  2  0  0  0  0
 20 21  1  0  0  0  0
 22 23  1  0  0  0  0
 23 24  2  0  0  0  0
 24 25  1  0  0  0  0
 26 27  1  0  0  0  0
 28 29  1  0  0  0  0
 29 34  1  0  0  0  0
 29 30  1  0  0  0  0
 30 31  1  0  0  0  0
 31 32  1  0  0  0  0
 32 33  1  0  0  0  0
 33 34  1  0  0  0  0
M  END
> <NMREDATA_VERSION>
1.1

> <NMREDATA_LEVEL>
0

> <NMREDATA_SOLVENT>
CDCl3

> <NMREDATA_FORMULA>
C31H35FNP

> <NMREDATA_SMILES>
[P]C1CCCCC1.N#Cc1cc(ccc1F)c1ccccc1c1ccccc1C1CCCCC1

> <NMREDATA_ASSIGNMENT>
P28, -10.70, 28

> <NMREDATA_1D_31P>
Larmor=162
-10.70, L=P28

$$$$
