
 OpenBabel06112616452D

 21 22  0  0  0  0  0  0  0  0999 V2000
    4.9487    2.7024    0.0000 C   0  0  0  0  0  0  0  0  0  0  0  0
    4.4487    3.5685    0.0000 C   0  0  0  0  0  0  0  0  0  0  0  0
    3.4487    3.5685    0.0000 C   0  0  0  0  0  0  0  0  0  0  0  0
    2.9487    2.7024    0.0000 C   0  0  0  0  0  0  0  0  0  0  0  0
    3.4487    1.8364    0.0000 C   0  0  0  0  0  0  0  0  0  0  0  0
    4.4487    1.8364    0.0000 C   0  0  0  0  0  0  0  0  0  0  0  0
    2.7796    1.0933    0.0000 C   0  0  0  0  0  0  0  0  0  0  0  0
    1.8660    1.5000    0.0000 C   0  0  0  0  0  0  0  0  0  0  0  0
    1.0000    1.0000    0.0000 C   0  0  0  0  0  0  0  0  0  0  0  0
    1.0000    0.0000    0.0000 P   0  0  0  0  0  0  0  0  0  0  0  0
    2.0000    0.0000    0.0000 O   0  0  0  0  0  0  0  0  0  0  0  0
    1.0000   -1.0000    0.0000 O   0  0  0  0  0  0  0  0  0  0  0  0
    1.8660   -1.5000    0.0000 C   0  0  0  0  0  0  0  0  0  0  0  0
    2.7321   -1.0000    0.0000 C   0  0  0  0  0  0  0  0  0  0  0  0
    0.0000    0.0000    0.0000 O   0  0  0  0  0  0  0  0  0  0  0  0
   -0.5000    0.8660    0.0000 C   0  0  0  0  0  0  0  0  0  0  0  0
   -1.5000    0.8660    0.0000 C   0  0  0  0  0  0  0  0  0  0  0  0
    1.9706    2.4945    0.0000 N   0  0  0  0  0  0  0  0  0  0  0  0
    1.2274    3.1637    0.0000 C   0  0  0  0  0  0  0  0  0  0  0  0
    1.4353    4.1418    0.0000 C   0  0  0  0  0  0  0  0  0  0  0  0
    0.2764    2.8546    0.0000 O   0  0  0  0  0  0  0  0  0  0  0  0
  1  6  2  0  0  0  0
  1  2  1  0  0  0  0
  2  3  2  0  0  0  0
  3  4  1  0  0  0  0
  4 18  1  0  0  0  0
  4  5  2  0  0  0  0
  5  6  1  0  0  0  0
  5  7  1  0  0  0  0
  7  8  2  0  0  0  0
  8  9  1  0  0  0  0
  8 18  1  0  0  0  0
  9 10  1  0  0  0  0
 10 11  2  0  0  0  0
 10 12  1  0  0  0  0
 10 15  1  0  0  0  0
 12 13  1  0  0  0  0
 13 14  1  0  0  0  0
 15 16  1  0  0  0  0
 16 17  1  0  0  0  0
 18 19  1  0  0  0  0
 19 20  1  0  0  0  0
 19 21  2  0  0  0  0
M  END
> <NMREDATA_VERSION>
1.1

> <NMREDATA_LEVEL>
0

> <NMREDATA_SOLVENT>
CDCl3

> <NMREDATA_FORMULA>
C15H20NO4P

> <NMREDATA_SMILES>
CCOP(=O)(Cc1cc2c(n1C(=O)C)cccc2)OCC

> <NMREDATA_ASSIGNMENT>
P10, 24.99, 10

> <NMREDATA_1D_31P>
Larmor=162
24.99, L=P10

$$$$
