
 OpenBabel06112616492D

 41 46  0  0  1  0  0  0  0  0999 V2000
    0.9296   -2.6215    0.0000 C   0  5  0  0  0  0  0  0  0  0  0  0
    1.9077   -2.8294    0.0000 N   0  3  0  0  0  0  0  0  0  0  0  0
    2.8858   -3.0373    0.0000 C   0  0  1  0  0  0  0  0  0  0  0  0
    3.1949   -3.9884    0.0000 C   0  0  0  0  0  0  0  0  0  0  0  0
    4.1730   -4.1963    0.0000 C   0  0  0  0  0  0  0  0  0  0  0  0
    4.4820   -5.1473    0.0000 C   0  0  0  0  0  0  0  0  0  0  0  0
    3.8129   -5.8905    0.0000 C   0  0  0  0  0  0  0  0  0  0  0  0
    4.1219   -6.8415    0.0000 N   0  3  0  0  0  0  0  0  0  0  0  0
    3.4528   -7.5847    0.0000 O   0  0  0  0  0  0  0  0  0  0  0  0
    5.1001   -7.0494    0.0000 O   0  5  0  0  0  0  0  0  0  0  0  0
    2.8347   -5.6826    0.0000 C   0  0  0  0  0  0  0  0  0  0  0  0
    2.5257   -4.7315    0.0000 C   0  0  0  0  0  0  0  0  0  0  0  0
    3.5550   -2.2942    0.0000 N   0  0  0  0  0  0  0  0  0  0  0  0
    3.2460   -1.3431    0.0000 P   0  0  0  0  0  0  0  0  0  0  0  0
    2.5768   -2.0862    0.0000 O   0  0  0  0  0  0  0  0  0  0  0  0
    4.1595   -0.9364    0.0000 N   0  0  0  0  0  0  0  0  0  0  0  0
    5.0255   -1.4364    0.0000 C   0  0  0  0  0  0  0  0  0  0  0  0
    5.8916   -0.9364    0.0000 C   0  0  0  0  0  0  0  0  0  0  0  0
    6.7576   -1.4364    0.0000 C   0  0  0  0  0  0  0  0  0  0  0  0
    7.6236   -0.9364    0.0000 C   0  0  0  0  0  0  0  0  0  0  0  0
    7.6236    0.0636    0.0000 C   0  0  0  0  0  0  0  0  0  0  0  0
    6.7576    0.5636    0.0000 C   0  0  0  0  0  0  0  0  0  0  0  0
    6.7576    1.5636    0.0000 C   0  0  0  0  0  0  0  0  0  0  0  0
    5.8916    2.0636    0.0000 C   0  0  0  0  0  0  0  0  0  0  0  0
    5.0255    1.5636    0.0000 C   0  0  0  0  0  0  0  0  0  0  0  0
    5.0255    0.5636    0.0000 C   0  0  0  0  0  0  0  0  0  0  0  0
    5.8916    0.0636    0.0000 C   0  0  0  0  0  0  0  0  0  0  0  0
    4.0550    0.0582    0.0000 C   0  0  0  0  0  0  0  0  0  0  0  0
    3.0768    0.2661    0.0000 C   0  0  0  0  0  0  0  0  0  0  0  0
    2.5768   -0.6000    0.0000 N   0  0  0  0  0  0  0  0  0  0  0  0
    1.5823   -0.7045    0.0000 C   0  0  0  0  0  0  0  0  0  0  0  0
    0.9945    0.1045    0.0000 C   0  0  0  0  0  0  0  0  0  0  0  0
    1.4013    1.0181    0.0000 C   0  0  0  0  0  0  0  0  0  0  0  0
    0.8135    1.8271    0.0000 C   0  0  0  0  0  0  0  0  0  0  0  0
   -0.1810    1.7226    0.0000 C   0  0  0  0  0  0  0  0  0  0  0  0
   -0.5878    0.8090    0.0000 C   0  0  0  0  0  0  0  0  0  0  0  0
   -1.5823    0.7045    0.0000 C   0  0  0  0  0  0  0  0  0  0  0  0
   -1.9890   -0.2091    0.0000 C   0  0  0  0  0  0  0  0  0  0  0  0
   -1.4013   -1.0181    0.0000 C   0  0  0  0  0  0  0  0  0  0  0  0
   -0.4067   -0.9135    0.0000 C   0  0  0  0  0  0  0  0  0  0  0  0
    0.0000    0.0000    0.0000 C   0  0  0  0  0  0  0  0  0  0  0  0
  1  2  3  0  0  0  0
  3  2  1  6  0  0  0
  3  4  1  0  0  0  0
  3 13  1  0  0  0  0
  4 12  2  0  0  0  0
  4  5  1  0  0  0  0
  5  6  2  0  0  0  0
  6  7  1  0  0  0  0
  7  8  1  0  0  0  0
  7 11  2  0  0  0  0
  8  9  2  0  0  0  0
  8 10  1  0  0  0  0
 11 12  1  0  0  0  0
 13 14  1  0  0  0  0
 14 30  1  0  0  0  0
 14 15  2  0  0  0  0
 14 16  1  0  0  0  0
 16 17  1  0  0  0  0
 16 28  1  0  0  0  0
 17 18  1  0  0  0  0
 18 27  2  0  0  0  0
 18 19  1  0  0  0  0
 19 20  2  0  0  0  0
 20 21  1  0  0  0  0
 21 22  2  0  0  0  0
 22 27  1  0  0  0  0
 22 23  1  0  0  0  0
 23 24  2  0  0  0  0
 24 25  1  0  0  0  0
 25 26  2  0  0  0  0
 26 27  1  0  0  0  0
 28 29  1  0  0  0  0
 29 30  1  0  0  0  0
 30 31  1  0  0  0  0
 31 32  1  0  0  0  0
 32 41  2  0  0  0  0
 32 33  1  0  0  0  0
 33 34  2  0  0  0  0
 34 35  1  0  0  0  0
 35 36  2  0  0  0  0
 36 41  1  0  0  0  0
 36 37  1  0  0  0  0
 37 38  2  0  0  0  0
 38 39  1  0  0  0  0
 39 40  2  0  0  0  0
 40 41  1  0  0  0  0
M  END
> <NMREDATA_VERSION>
1.1

> <NMREDATA_LEVEL>
0

> <NMREDATA_SOLVENT>
CDCl3

> <NMREDATA_FORMULA>
C32H28N5O3P

> <NMREDATA_SMILES>
[C-]#[N+][C@@H](c1ccc(cc1)[N+](=O)[O-])NP1(=O)N(CCN1Cc1cccc2c1cccc2)Cc1cccc2c1cccc2

> <NMREDATA_ASSIGNMENT>
P14, 22.40, 14

> <NMREDATA_1D_31P>
Larmor=202
22.40, L=P14

$$$$
