
 OpenBabel06112616462D

 16 16  0  0  0  0  0  0  0  0999 V2000
    0.4871    5.7779    0.0000 C   0  0  0  0  0  0  0  0  0  0  0  0
   -0.4788    5.5191    0.0000 C   0  0  0  0  0  0  0  0  0  0  0  0
   -0.7377    4.5532    0.0000 C   0  0  0  0  0  0  0  0  0  0  0  0
   -0.0306    3.8461    0.0000 C   0  0  0  0  0  0  0  0  0  0  0  0
   -0.2894    2.8801    0.0000 C   0  0  0  0  0  0  0  0  0  0  0  0
    0.4177    2.1730    0.0000 C   0  0  0  0  0  0  0  0  0  0  0  0
    0.1589    1.2071    0.0000 N   0  0  0  0  0  0  0  0  0  0  0  0
    0.8660    0.5000    0.0000 P   0  0  0  0  0  0  0  0  0  0  0  0
    1.7899    0.8827    0.0000 O   0  0  0  0  0  0  0  0  0  0  0  0
    1.7321    0.0000    0.0000 O   0  0  0  0  0  0  0  0  0  0  0  0
    1.7321   -1.0000    0.0000 C   0  0  0  0  0  0  0  0  0  0  0  0
    0.8660   -1.5000    0.0000 C   0  0  0  0  0  0  0  0  0  0  0  0
    0.3660   -2.3660    0.0000 C   0  0  0  0  0  0  0  0  0  0  0  0
    1.3660   -2.3660    0.0000 C   0  0  0  0  0  0  0  0  0  0  0  0
    0.0000   -1.0000    0.0000 C   0  0  0  0  0  0  0  0  0  0  0  0
    0.0000    0.0000    0.0000 O   0  0  0  0  0  0  0  0  0  0  0  0
  1  2  1  0  0  0  0
  2  3  1  0  0  0  0
  3  4  1  0  0  0  0
  4  5  1  0  0  0  0
  5  6  1  0  0  0  0
  6  7  1  0  0  0  0
  7  8  1  0  0  0  0
  8 16  1  0  0  0  0
  8  9  2  0  0  0  0
  8 10  1  0  0  0  0
 10 11  1  0  0  0  0
 11 12  1  0  0  0  0
 12 13  1  0  0  0  0
 12 14  1  0  0  0  0
 12 15  1  0  0  0  0
 15 16  1  0  0  0  0
M  END
> <NMREDATA_VERSION>
1.1

> <NMREDATA_LEVEL>
0

> <NMREDATA_SOLVENT>
CDCl3

> <NMREDATA_FORMULA>
C11H24NO3P

> <NMREDATA_SMILES>
CCCCCCNP1(=O)OCC(CO1)(C)C

> <NMREDATA_ASSIGNMENT>
P8, 6.81, 8

> <NMREDATA_1D_31P>
Larmor=162
6.81, L=P8

$$$$
