
 OpenBabel06112616422D

 60 66  0  0  1  0  0  0  0  0999 V2000
    0.0000    2.4641    0.0000 O   0  0  0  0  0  0  0  0  0  0  0  0
    1.0000    2.4641    0.0000 C   0  0  0  0  0  0  0  0  0  0  0  0
    1.5000    1.5981    0.0000 C   0  0  1  0  0  0  0  0  0  0  0  0
    1.0000    0.7321    0.0000 O   0  0  0  0  0  0  0  0  0  0  0  0
    1.5000   -0.1340    0.0000 C   0  0  1  0  0  0  0  0  0  0  0  0
    1.0000   -1.0000    0.0000 O   0  0  0  0  0  0  0  0  0  0  0  0
    0.0000   -1.0000    0.0000 P   0  0  0  0  0  0  0  0  0  0  0  0
    0.0000   -2.0000    0.0000 O   0  0  0  0  0  0  0  0  0  0  0  0
   -1.0000   -1.0000    0.0000 O   0  0  0  0  0  0  0  0  0  0  0  0
   -1.5000   -1.8660    0.0000 C   0  0  0  0  0  0  0  0  0  0  0  0
   -2.5000   -1.8660    0.0000 C   0  0  0  0  0  0  0  0  0  0  0  0
   -3.0000   -2.7321    0.0000 C   0  0  0  0  0  0  0  0  0  0  0  0
   -2.5000   -3.5981    0.0000 C   0  0  0  0  0  0  0  0  0  0  0  0
   -3.0000   -4.4641    0.0000 O   0  0  0  0  0  0  0  0  0  0  0  0
   -4.0000   -4.4641    0.0000 C   0  0  0  0  0  0  0  0  0  0  0  0
   -1.5000   -3.5981    0.0000 C   0  0  0  0  0  0  0  0  0  0  0  0
   -1.0000   -2.7321    0.0000 C   0  0  0  0  0  0  0  0  0  0  0  0
    0.0000    0.0000    0.0000 O   0  0  0  0  0  0  0  0  0  0  0  0
   -0.8660    0.5000    0.0000 C   0  0  0  0  0  0  0  0  0  0  0  0
   -0.8660    1.5000    0.0000 C   0  0  0  0  0  0  0  0  0  0  0  0
   -1.7321    2.0000    0.0000 C   0  0  0  0  0  0  0  0  0  0  0  0
   -2.5981    1.5000    0.0000 C   0  0  0  0  0  0  0  0  0  0  0  0
   -3.4641    2.0000    0.0000 O   0  0  0  0  0  0  0  0  0  0  0  0
   -4.3301    1.5000    0.0000 C   0  0  0  0  0  0  0  0  0  0  0  0
   -2.5981    0.5000    0.0000 C   0  0  0  0  0  0  0  0  0  0  0  0
   -1.7321    0.0000    0.0000 C   0  0  0  0  0  0  0  0  0  0  0  0
    2.5000   -0.1340    0.0000 C   0  0  2  0  0  0  0  0  0  0  0  0
    3.0000   -1.0000    0.0000 O   0  0  0  0  0  0  0  0  0  0  0  0
    2.5000   -1.8660    0.0000 C   0  0  0  0  0  0  0  0  0  0  0  0
    3.0000   -2.7321    0.0000 C   0  0  0  0  0  0  0  0  0  0  0  0
    2.5000   -3.5981    0.0000 C   0  0  0  0  0  0  0  0  0  0  0  0
    3.0000   -4.4641    0.0000 C   0  0  0  0  0  0  0  0  0  0  0  0
    4.0000   -4.4641    0.0000 C   0  0  0  0  0  0  0  0  0  0  0  0
    4.5000   -3.5981    0.0000 C   0  0  0  0  0  0  0  0  0  0  0  0
    4.0000   -2.7321    0.0000 C   0  0  0  0  0  0  0  0  0  0  0  0
    3.0000    0.7321    0.0000 C   0  0  1  0  0  0  0  0  0  0  0  0
    4.0000    0.7321    0.0000 O   0  0  0  0  0  0  0  0  0  0  0  0
    4.5000    1.5981    0.0000 C   0  0  0  0  0  0  0  0  0  0  0  0
    5.5000    1.5981    0.0000 C   0  0  0  0  0  0  0  0  0  0  0  0
    6.0000    0.7321    0.0000 C   0  0  0  0  0  0  0  0  0  0  0  0
    7.0000    0.7321    0.0000 C   0  0  0  0  0  0  0  0  0  0  0  0
    7.5000    1.5981    0.0000 C   0  0  0  0  0  0  0  0  0  0  0  0
    7.0000    2.4641    0.0000 C   0  0  0  0  0  0  0  0  0  0  0  0
    6.0000    2.4641    0.0000 C   0  0  0  0  0  0  0  0  0  0  0  0
    2.5000    1.5981    0.0000 C   0  0  2  0  0  0  0  0  0  0  0  0
    3.0000    2.4641    0.0000 O   0  0  0  0  0  0  0  0  0  0  0  0
    2.5000    3.3301    0.0000 C   0  0  0  0  0  0  0  0  0  0  0  0
    3.0000    4.1962    0.0000 C   0  0  0  0  0  0  0  0  0  0  0  0
    4.0000    4.1962    0.0000 C   0  0  0  0  0  0  0  0  0  0  0  0
    4.5000    5.0622    0.0000 C   0  0  0  0  0  0  0  0  0  0  0  0
    4.0000    5.9282    0.0000 C   0  0  0  0  0  0  0  0  0  0  0  0
    3.0000    5.9282    0.0000 C   0  0  0  0  0  0  0  0  0  0  0  0
    2.5000    5.0622    0.0000 C   0  0  0  0  0  0  0  0  0  0  0  0
   -0.5000    3.3301    0.0000 C   0  0  0  0  0  0  0  0  0  0  0  0
   -1.5000    3.3301    0.0000 C   0  0  0  0  0  0  0  0  0  0  0  0
   -2.0000    2.4641    0.0000 C   0  0  0  0  0  0  0  0  0  0  0  0
   -3.0000    2.4641    0.0000 C   0  0  0  0  0  0  0  0  0  0  0  0
   -3.5000    3.3301    0.0000 C   0  0  0  0  0  0  0  0  0  0  0  0
   -3.0000    4.1962    0.0000 C   0  0  0  0  0  0  0  0  0  0  0  0
   -2.0000    4.1962    0.0000 C   0  0  0  0  0  0  0  0  0  0  0  0
  1  2  1  0  0  0  0
  1 54  1  0  0  0  0
  3  2  1  6  0  0  0
  3  4  1  0  0  0  0
  3 45  1  0  0  0  0
  4  5  1  0  0  0  0
  5  6  1  6  0  0  0
  5 27  1  0  0  0  0
  6  7  1  0  0  0  0
  7  8  2  0  0  0  0
  7  9  1  0  0  0  0
  7 18  1  0  0  0  0
  9 10  1  0  0  0  0
 10 17  2  0  0  0  0
 10 11  1  0  0  0  0
 11 12  2  0  0  0  0
 12 13  1  0  0  0  0
 13 14  1  0  0  0  0
 13 16  2  0  0  0  0
 14 15  1  0  0  0  0
 16 17  1  0  0  0  0
 18 19  1  0  0  0  0
 19 26  2  0  0  0  0
 19 20  1  0  0  0  0
 20 21  2  0  0  0  0
 21 22  1  0  0  0  0
 22 23  1  0  0  0  0
 22 25  2  0  0  0  0
 23 24  1  0  0  0  0
 25 26  1  0  0  0  0
 27 28  1  1  0  0  0
 27 36  1  0  0  0  0
 28 29  1  0  0  0  0
 29 30  1  0  0  0  0
 30 35  2  0  0  0  0
 30 31  1  0  0  0  0
 31 32  2  0  0  0  0
 32 33  1  0  0  0  0
 33 34  2  0  0  0  0
 34 35  1  0  0  0  0
 36 37  1  6  0  0  0
 36 45  1  0  0  0  0
 37 38  1  0  0  0  0
 38 39  1  0  0  0  0
 39 44  2  0  0  0  0
 39 40  1  0  0  0  0
 40 41  2  0  0  0  0
 41 42  1  0  0  0  0
 42 43  2  0  0  0  0
 43 44  1  0  0  0  0
 45 46  1  1  0  0  0
 46 47  1  0  0  0  0
 47 48  1  0  0  0  0
 48 53  2  0  0  0  0
 48 49  1  0  0  0  0
 49 50  2  0  0  0  0
 50 51  1  0  0  0  0
 51 52  2  0  0  0  0
 52 53  1  0  0  0  0
 54 55  1  0  0  0  0
 55 60  2  0  0  0  0
 55 56  1  0  0  0  0
 56 57  2  0  0  0  0
 57 58  1  0  0  0  0
 58 59  2  0  0  0  0
 59 60  1  0  0  0  0
M  END
> <NMREDATA_VERSION>
1.1

> <NMREDATA_LEVEL>
0

> <NMREDATA_SOLVENT>
CDCl3

> <NMREDATA_FORMULA>
C48H49O11P

> <NMREDATA_SMILES>
COc1ccc(cc1)OP(=O)(O[C@@H]1O[C@H](COCc2ccccc2)[C@H]([C@@H]([C@H]1OCc1ccccc1)OCc1ccccc1)OCc1ccccc1)Oc1ccc(cc1)OC

> <NMREDATA_ASSIGNMENT>
P7, -12.20, 7

> <NMREDATA_1D_31P>
Larmor=202
-12.20, L=P7

$$$$
