
 OpenBabel06112616432D

 35 39  0  0  1  0  0  0  0  0999 V2000
   -2.3181   -4.7677    0.0000 O   0  0  0  0  0  0  0  0  0  0  0  0
   -2.0234   -3.8121    0.0000 C   0  0  0  0  0  0  0  0  0  0  0  0
   -2.7036   -3.0791    0.0000 C   0  0  0  0  0  0  0  0  0  0  0  0
   -2.4088   -2.1235    0.0000 C   0  0  0  0  0  0  0  0  0  0  0  0
   -1.4339   -1.9010    0.0000 C   0  0  0  0  0  0  0  0  0  0  0  0
   -0.7537   -2.6340    0.0000 C   0  0  0  0  0  0  0  0  0  0  0  0
   -1.0485   -3.5896    0.0000 C   0  0  0  0  0  0  0  0  0  0  0  0
   -0.3683   -4.3226    0.0000 O   0  0  0  0  0  0  0  0  0  0  0  0
   -0.6630   -5.2782    0.0000 C   0  0  0  0  0  0  0  0  0  0  0  0
   -1.0000   -1.0000    0.0000 C   0  0  1  0  0  0  0  0  0  0  0  0
    0.0000   -1.0000    0.0000 P   0  0  0  0  0  0  0  0  0  0  0  0
    0.0000   -2.0000    0.0000 O   0  0  0  0  0  0  0  0  0  0  0  0
    1.0000   -1.0000    0.0000 C   0  0  0  0  0  0  0  0  0  0  0  0
    1.5000   -0.1340    0.0000 C   0  0  0  0  0  0  0  0  0  0  0  0
    2.5000   -0.1340    0.0000 C   0  0  0  0  0  0  0  0  0  0  0  0
    3.0000   -1.0000    0.0000 C   0  0  0  0  0  0  0  0  0  0  0  0
    2.5000   -1.8660    0.0000 C   0  0  0  0  0  0  0  0  0  0  0  0
    1.5000   -1.8660    0.0000 C   0  0  0  0  0  0  0  0  0  0  0  0
    0.0000    0.0000    0.0000 C   0  0  0  0  0  0  0  0  0  0  0  0
   -0.8660    0.5000    0.0000 C   0  0  0  0  0  0  0  0  0  0  0  0
   -0.8660    1.5000    0.0000 C   0  0  0  0  0  0  0  0  0  0  0  0
    0.0000    2.0000    0.0000 C   0  0  0  0  0  0  0  0  0  0  0  0
    0.8660    1.5000    0.0000 C   0  0  0  0  0  0  0  0  0  0  0  0
    0.8660    0.5000    0.0000 C   0  0  0  0  0  0  0  0  0  0  0  0
   -1.4339   -0.0990    0.0000 N   0  0  0  0  0  0  0  0  0  0  0  0
   -2.4088    0.1235    0.0000 S   0  0  0  0  0  0  0  0  0  0  0  0
   -2.1141    1.0791    0.0000 O   0  0  0  0  0  0  0  0  0  0  0  0
   -3.0890    0.8565    0.0000 O   0  0  0  0  0  0  0  0  0  0  0  0
   -3.1906   -0.5000    0.0000 C   0  0  0  0  0  0  0  0  0  0  0  0
   -4.0567    0.0000    0.0000 C   0  0  0  0  0  0  0  0  0  0  0  0
   -4.9227   -0.5000    0.0000 C   0  0  0  0  0  0  0  0  0  0  0  0
   -4.9227   -1.5000    0.0000 C   0  0  0  0  0  0  0  0  0  0  0  0
   -4.0567   -2.0000    0.0000 C   0  0  0  0  0  0  0  0  0  0  0  0
   -3.1906   -1.5000    0.0000 C   0  0  0  0  0  0  0  0  0  0  0  0
   -3.2931   -4.9902    0.0000 C   0  0  0  0  0  0  0  0  0  0  0  0
  1  2  1  0  0  0  0
  1 35  1  0  0  0  0
  2  7  2  0  0  0  0
  2  3  1  0  0  0  0
  3  4  2  0  0  0  0
  4 34  1  0  0  0  0
  4  5  1  0  0  0  0
  5  6  2  0  0  0  0
  5 10  1  0  0  0  0
  6  7  1  0  0  0  0
  7  8  1  0  0  0  0
  8  9  1  0  0  0  0
 10 11  1  6  0  0  0
 10 25  1  0  0  0  0
 11 12  2  0  0  0  0
 11 13  1  0  0  0  0
 11 19  1  0  0  0  0
 13 18  2  0  0  0  0
 13 14  1  0  0  0  0
 14 15  2  0  0  0  0
 15 16  1  0  0  0  0
 16 17  2  0  0  0  0
 17 18  1  0  0  0  0
 19 24  2  0  0  0  0
 19 20  1  0  0  0  0
 20 21  2  0  0  0  0
 21 22  1  0  0  0  0
 22 23  2  0  0  0  0
 23 24  1  0  0  0  0
 25 26  1  0  0  0  0
 26 27  2  0  0  0  0
 26 28  2  0  0  0  0
 26 29  1  0  0  0  0
 29 34  2  0  0  0  0
 29 30  1  0  0  0  0
 30 31  2  0  0  0  0
 31 32  1  0  0  0  0
 32 33  2  0  0  0  0
 33 34  1  0  0  0  0
M  END
> <NMREDATA_VERSION>
1.1

> <NMREDATA_LEVEL>
0

> <NMREDATA_SOLVENT>
DMSO-d6

> <NMREDATA_FORMULA>
C27H24NO5PS

> <NMREDATA_SMILES>
COc1cc2c(-c3ccccc3S(=O)(=O)N[C@@H]2P(=O)(c2ccccc2)c2ccccc2)cc1OC

> <NMREDATA_ASSIGNMENT>
P11, 27.47, 11

> <NMREDATA_1D_31P>
Larmor=162
27.47, L=P11

$$$$
