
 OpenBabel06112616472D

 37 40  0  0  1  0  0  0  0  0999 V2000
   -2.5000    1.5981    0.0000 C   0  0  0  0  0  0  0  0  0  0  0  0
   -3.0000    0.7321    0.0000 C   0  0  0  0  0  0  0  0  0  0  0  0
   -2.5000   -0.1340    0.0000 C   0  0  0  0  0  0  0  0  0  0  0  0
   -1.5000   -0.1340    0.0000 C   0  0  0  0  0  0  0  0  0  0  0  0
   -1.0000   -1.0000    0.0000 C   0  0  2  0  0  0  0  0  0  0  0  0
   -1.5000   -1.8660    0.0000 C   0  0  0  0  0  0  0  0  0  0  0  0
   -1.0933   -2.7796    0.0000 C   0  0  0  0  0  0  0  0  0  0  0  0
   -0.1151   -2.9875    0.0000 C   0  0  0  0  0  0  0  0  0  0  0  0
   -1.8364   -3.4487    0.0000 N   0  0  0  0  0  0  0  0  0  0  0  0
   -2.7024   -2.9487    0.0000 C   0  0  0  0  0  0  0  0  0  0  0  0
   -3.6535   -3.2577    0.0000 C   0  0  0  0  0  0  0  0  0  0  0  0
   -4.3966   -2.5886    0.0000 C   0  0  0  0  0  0  0  0  0  0  0  0
   -4.1887   -1.6104    0.0000 C   0  0  0  0  0  0  0  0  0  0  0  0
   -3.2377   -1.3014    0.0000 C   0  0  0  0  0  0  0  0  0  0  0  0
   -2.4945   -1.9706    0.0000 C   0  0  0  0  0  0  0  0  0  0  0  0
    0.0000   -1.0000    0.0000 P   0  0  0  0  0  0  0  0  0  0  0  0
    0.0000   -2.0000    0.0000 O   0  0  0  0  0  0  0  0  0  0  0  0
    1.0000   -1.0000    0.0000 C   0  0  0  0  0  0  0  0  0  0  0  0
    1.5000   -0.1340    0.0000 C   0  0  0  0  0  0  0  0  0  0  0  0
    2.5000   -0.1340    0.0000 C   0  0  0  0  0  0  0  0  0  0  0  0
    3.0000   -1.0000    0.0000 C   0  0  0  0  0  0  0  0  0  0  0  0
    4.0000   -1.0000    0.0000 C   0  0  0  0  0  0  0  0  0  0  0  0
    4.8660   -0.5000    0.0000 F   0  0  0  0  0  0  0  0  0  0  0  0
    4.0000    0.0000    0.0000 F   0  0  0  0  0  0  0  0  0  0  0  0
    4.5000   -1.8660    0.0000 F   0  0  0  0  0  0  0  0  0  0  0  0
    2.5000   -1.8660    0.0000 C   0  0  0  0  0  0  0  0  0  0  0  0
    1.5000   -1.8660    0.0000 C   0  0  0  0  0  0  0  0  0  0  0  0
    0.0000    0.0000    0.0000 C   0  0  0  0  0  0  0  0  0  0  0  0
   -0.8660    0.5000    0.0000 C   0  0  0  0  0  0  0  0  0  0  0  0
   -0.8660    1.5000    0.0000 C   0  0  0  0  0  0  0  0  0  0  0  0
    0.0000    2.0000    0.0000 C   0  0  0  0  0  0  0  0  0  0  0  0
    0.0000    3.0000    0.0000 C   0  0  0  0  0  0  0  0  0  0  0  0
   -0.5000    3.8660    0.0000 F   0  0  0  0  0  0  0  0  0  0  0  0
   -1.0000    3.0000    0.0000 F   0  0  0  0  0  0  0  0  0  0  0  0
    0.8660    3.5000    0.0000 F   0  0  0  0  0  0  0  0  0  0  0  0
    0.8660    1.5000    0.0000 C   0  0  0  0  0  0  0  0  0  0  0  0
    0.8660    0.5000    0.0000 C   0  0  0  0  0  0  0  0  0  0  0  0
  1  2  1  0  0  0  0
  2  3  1  0  0  0  0
  3  4  1  0  0  0  0
  5  4  1  1  0  0  0
  5  6  1  0  0  0  0
  5 16  1  0  0  0  0
  6 15  1  0  0  0  0
  6  7  2  0  0  0  0
  7  8  1  0  0  0  0
  7  9  1  0  0  0  0
  9 10  1  0  0  0  0
 10 15  2  0  0  0  0
 10 11  1  0  0  0  0
 11 12  2  0  0  0  0
 12 13  1  0  0  0  0
 13 14  2  0  0  0  0
 14 15  1  0  0  0  0
 16 17  2  0  0  0  0
 16 18  1  0  0  0  0
 16 28  1  0  0  0  0
 18 27  2  0  0  0  0
 18 19  1  0  0  0  0
 19 20  2  0  0  0  0
 20 21  1  0  0  0  0
 21 22  1  0  0  0  0
 21 26  2  0  0  0  0
 22 23  1  0  0  0  0
 22 24  1  0  0  0  0
 22 25  1  0  0  0  0
 26 27  1  0  0  0  0
 28 37  2  0  0  0  0
 28 29  1  0  0  0  0
 29 30  2  0  0  0  0
 30 31  1  0  0  0  0
 31 32  1  0  0  0  0
 31 36  2  0  0  0  0
 32 33  1  0  0  0  0
 32 34  1  0  0  0  0
 32 35  1  0  0  0  0
 36 37  1  0  0  0  0
M  END
> <NMREDATA_VERSION>
1.1

> <NMREDATA_LEVEL>
0

> <NMREDATA_SOLVENT>
DMSO-d6

> <NMREDATA_FORMULA>
C28H26F6NOP

> <NMREDATA_SMILES>
CCCC[C@@H](P(=O)(c1ccc(cc1)C(F)(F)F)c1ccc(cc1)C(F)(F)F)c1c(C)[nH]c2c1cccc2

> <NMREDATA_ASSIGNMENT>
P16, 31.04, 16

> <NMREDATA_1D_31P>
Larmor=162
31.04, L=P16

$$$$
