
 OpenBabel06112616432D

 28 30  0  0  0  0  0  0  0  0999 V2000
   -0.7321   -1.0000    0.0000 C   0  0  0  0  0  0  0  0  0  0  0  0
    0.1340   -1.5000    0.0000 C   0  0  0  0  0  0  0  0  0  0  0  0
    1.0000   -1.0000    0.0000 O   0  0  0  0  0  0  0  0  0  0  0  0
    1.0000    0.0000    0.0000 P   0  0  0  0  0  0  0  0  0  0  0  0
    2.0000    0.0000    0.0000 O   0  0  0  0  0  0  0  0  0  0  0  0
    2.5000    0.8660    0.0000 C   0  0  0  0  0  0  0  0  0  0  0  0
    3.5000    0.8660    0.0000 C   0  0  0  0  0  0  0  0  0  0  0  0
    1.0000    1.0000    0.0000 C   0  0  0  0  0  0  0  0  0  0  0  0
    0.1910    1.5878    0.0000 C   0  0  0  0  0  0  0  0  0  0  0  0
   -0.7601    1.2788    0.0000 C   0  0  0  0  0  0  0  0  0  0  0  0
   -0.9680    0.3006    0.0000 C   0  0  0  0  0  0  0  0  0  0  0  0
   -1.9190   -0.0084    0.0000 C   0  0  0  0  0  0  0  0  0  0  0  0
   -2.6622    0.6607    0.0000 C   0  0  0  0  0  0  0  0  0  0  0  0
   -3.6132    0.3517    0.0000 O   0  0  0  0  0  0  0  0  0  0  0  0
   -4.3564    1.0208    0.0000 C   0  0  0  0  0  0  0  0  0  0  0  0
   -2.4543    1.6389    0.0000 C   0  0  0  0  0  0  0  0  0  0  0  0
   -1.5032    1.9479    0.0000 C   0  0  0  0  0  0  0  0  0  0  0  0
    0.5000    2.5388    0.0000 N   0  0  0  0  0  0  0  0  0  0  0  0
   -0.0878    3.3479    0.0000 C   0  0  0  0  0  0  0  0  0  0  0  0
    0.3190    4.2614    0.0000 C   0  0  0  0  0  0  0  0  0  0  0  0
   -0.2688    5.0704    0.0000 C   0  0  0  0  0  0  0  0  0  0  0  0
    0.1379    5.9840    0.0000 C   0  0  0  0  0  0  0  0  0  0  0  0
    1.1324    6.0885    0.0000 C   0  0  0  0  0  0  0  0  0  0  0  0
    1.7202    5.2795    0.0000 C   0  0  0  0  0  0  0  0  0  0  0  0
    1.3135    4.3659    0.0000 C   0  0  0  0  0  0  0  0  0  0  0  0
    1.5000    2.5388    0.0000 N   0  0  0  0  0  0  0  0  0  0  0  0
    1.8090    1.5878    0.0000 N   0  0  0  0  0  0  0  0  0  0  0  0
    0.0000    0.0000    0.0000 O   0  0  0  0  0  0  0  0  0  0  0  0
  1  2  1  0  0  0  0
  2  3  1  0  0  0  0
  3  4  1  0  0  0  0
  4  5  1  0  0  0  0
  4  8  1  0  0  0  0
  4 28  2  0  0  0  0
  5  6  1  0  0  0  0
  6  7  1  0  0  0  0
  8 27  1  0  0  0  0
  8  9  2  0  0  0  0
  9 10  1  0  0  0  0
  9 18  1  0  0  0  0
 10 17  2  0  0  0  0
 10 11  1  0  0  0  0
 11 12  2  0  0  0  0
 12 13  1  0  0  0  0
 13 14  1  0  0  0  0
 13 16  2  0  0  0  0
 14 15  1  0  0  0  0
 16 17  1  0  0  0  0
 18 19  1  0  0  0  0
 18 26  1  0  0  0  0
 19 20  1  0  0  0  0
 20 25  2  0  0  0  0
 20 21  1  0  0  0  0
 21 22  2  0  0  0  0
 22 23  1  0  0  0  0
 23 24  2  0  0  0  0
 24 25  1  0  0  0  0
 26 27  2  0  0  0  0
M  END
> <NMREDATA_VERSION>
1.1

> <NMREDATA_LEVEL>
0

> <NMREDATA_SOLVENT>
CDCl3

> <NMREDATA_FORMULA>
C20H24N3O4P

> <NMREDATA_SMILES>
CCOP(=O)(c1nnn(c1c1ccc(cc1)OC)Cc1ccccc1)OCC

> <NMREDATA_ASSIGNMENT>
P4, 7.60, 4

> <NMREDATA_1D_31P>
Larmor=200
7.60, L=P4

$$$$
