
 OpenBabel06112616432D

 40 45  0  0  1  0  0  0  0  0999 V2000
   -0.8472    2.4457    0.0000 C   0  0  0  0  0  0  0  0  0  0  0  0
   -0.8472    1.4674    0.0000 C   0  0  2  0  0  0  0  0  0  0  0  0
   -1.6944    0.9783    0.0000 N   0  0  0  0  0  0  0  0  0  0  0  0
   -3.3888    1.9565    0.0000 P   0  0  0  0  0  0  0  0  0  0  0  0
   -3.3888    2.9348    0.0000 C   0  0  0  0  0  0  0  0  0  0  0  0
   -4.2360    3.4239    0.0000 C   0  0  0  0  0  0  0  0  0  0  0  0
   -4.2360    4.4022    0.0000 C   0  0  0  0  0  0  0  0  0  0  0  0
   -3.3888    4.8913    0.0000 C   0  0  0  0  0  0  0  0  0  0  0  0
   -3.3888    5.8696    0.0000 F   0  0  0  0  0  0  0  0  0  0  0  0
   -2.5416    4.4022    0.0000 C   0  0  0  0  0  0  0  0  0  0  0  0
   -2.5416    3.4239    0.0000 C   0  0  0  0  0  0  0  0  0  0  0  0
   -4.2360    1.4674    0.0000 C   0  0  0  0  0  0  0  0  0  0  0  0
   -4.2360    0.4891    0.0000 C   0  0  0  0  0  0  0  0  0  0  0  0
   -5.0832    0.0000    0.0000 C   0  0  0  0  0  0  0  0  0  0  0  0
   -5.9304    0.4891    0.0000 C   0  0  0  0  0  0  0  0  0  0  0  0
   -6.7776    0.0000    0.0000 F   0  0  0  0  0  0  0  0  0  0  0  0
   -5.9304    1.4674    0.0000 C   0  0  0  0  0  0  0  0  0  0  0  0
   -5.0832    1.9565    0.0000 C   0  0  0  0  0  0  0  0  0  0  0  0
   -1.6944    0.0000    0.0000 C   0  0  1  0  0  0  0  0  0  0  0  0
   -2.5416   -0.4891    0.0000 C   0  0  0  0  0  0  0  0  0  0  0  0
   -2.5416   -1.4674    0.0000 C   0  0  0  0  0  0  0  0  0  0  0  0
   -3.3888   -1.9565    0.0000 C   0  0  0  0  0  0  0  0  0  0  0  0
   -4.2360   -1.4674    0.0000 C   0  0  0  0  0  0  0  0  0  0  0  0
   -5.0832   -1.9565    0.0000 C   0  0  0  0  0  0  0  0  0  0  0  0
   -5.0832   -2.9348    0.0000 C   0  0  0  0  0  0  0  0  0  0  0  0
   -4.2360   -3.4239    0.0000 C   0  0  0  0  0  0  0  0  0  0  0  0
   -3.3888   -2.9348    0.0000 C   0  0  0  0  0  0  0  0  0  0  0  0
   -4.2360   -0.4891    0.0000 C   0  0  0  0  0  0  0  0  0  0  0  0
   -3.3888    0.0000    0.0000 C   0  0  0  0  0  0  0  0  0  0  0  0
   -0.8472   -0.4891    0.0000 C   0  0  0  0  0  0  0  0  0  0  0  0
    0.0000    0.9783    0.0000 C   0  0  0  0  0  0  0  0  0  0  0  0
    0.8472    1.4674    0.0000 C   0  0  0  0  0  0  0  0  0  0  0  0
    1.6944    0.9783    0.0000 C   0  0  0  0  0  0  0  0  0  0  0  0
    1.6944    0.0000    0.0000 C   0  0  0  0  0  0  0  0  0  0  0  0
    2.5416   -0.4891    0.0000 C   0  0  0  0  0  0  0  0  0  0  0  0
    3.3888    0.0000    0.0000 C   0  0  0  0  0  0  0  0  0  0  0  0
    3.3888    0.9783    0.0000 C   0  0  0  0  0  0  0  0  0  0  0  0
    2.5416    1.4674    0.0000 C   0  0  0  0  0  0  0  0  0  0  0  0
    0.8472   -0.4891    0.0000 C   0  0  0  0  0  0  0  0  0  0  0  0
    0.0000    0.0000    0.0000 C   0  0  0  0  0  0  0  0  0  0  0  0
  2  1  1  1  0  0  0
  2  3  1  0  0  0  0
  2 31  1  0  0  0  0
  3  4  1  0  0  0  0
  3 19  1  0  0  0  0
  4  5  1  0  0  0  0
  4 12  1  0  0  0  0
  5 11  2  0  0  0  0
  5  6  1  0  0  0  0
  6  7  2  0  0  0  0
  7  8  1  0  0  0  0
  8  9  1  0  0  0  0
  8 10  2  0  0  0  0
 10 11  1  0  0  0  0
 12 18  2  0  0  0  0
 12 13  1  0  0  0  0
 13 14  2  0  0  0  0
 14 15  1  0  0  0  0
 15 16  1  0  0  0  0
 15 17  2  0  0  0  0
 17 18  1  0  0  0  0
 19 20  1  0  0  0  0
 19 30  1  6  0  0  0
 20 29  2  0  0  0  0
 20 21  1  0  0  0  0
 21 22  2  0  0  0  0
 22 27  1  0  0  0  0
 22 23  1  0  0  0  0
 23 24  1  0  0  0  0
 23 28  2  0  0  0  0
 24 25  2  0  0  0  0
 25 26  1  0  0  0  0
 26 27  2  0  0  0  0
 28 29  1  0  0  0  0
 31 40  2  0  0  0  0
 31 32  1  0  0  0  0
 32 33  2  0  0  0  0
 33 38  1  0  0  0  0
 33 34  1  0  0  0  0
 34 35  1  0  0  0  0
 34 39  2  0  0  0  0
 35 36  2  0  0  0  0
 36 37  1  0  0  0  0
 37 38  2  0  0  0  0
 39 40  1  0  0  0  0
M  END
> <NMREDATA_VERSION>
1.1

> <NMREDATA_LEVEL>
0

> <NMREDATA_FORMULA>
C36H30F2NP

> <NMREDATA_SMILES>
Fc1ccc(cc1)P(N([C@H](c1ccc2c(c1)cccc2)C)[C@@H](c1ccc2c(c1)cccc2)C)c1ccc(cc1)F

> <NMREDATA_ASSIGNMENT>
P4, 40.90, 4

> <NMREDATA_1D_31P>
Larmor=161.98
40.90, L=P4

$$$$
