
 OpenBabel06112616452D

 35 38  0  0  0  0  0  0  0  0999 V2000
    7.4847   -1.5000    0.0000 O   0  0  0  0  0  0  0  0  0  0  0  0
    8.4847   -1.5000    0.0000 S   0  0  0  0  0  0  0  0  0  0  0  0
    8.4847   -2.5000    0.0000 O   0  0  0  0  0  0  0  0  0  0  0  0
    9.4847   -1.5000    0.0000 C   0  0  0  0  0  0  0  0  0  0  0  0
   10.3507   -1.0000    0.0000 F   0  0  0  0  0  0  0  0  0  0  0  0
    9.4847   -0.5000    0.0000 F   0  0  0  0  0  0  0  0  0  0  0  0
    9.9847   -2.3660    0.0000 F   0  0  0  0  0  0  0  0  0  0  0  0
    8.4847   -0.5000    0.0000 O   0  5  0  0  0  0  0  0  0  0  0  0
    0.7640   -6.9491    0.0000 C   0  0  0  0  0  0  0  0  0  0  0  0
    1.3206   -6.1830    0.0000 O   0  0  0  0  0  0  0  0  0  0  0  0
    1.3206   -5.2361    0.0000 C   0  0  0  0  0  0  0  0  0  0  0  0
    2.1407   -4.7627    0.0000 C   0  0  0  0  0  0  0  0  0  0  0  0
    2.1409   -3.8153    0.0000 C   0  0  0  0  0  0  0  0  0  0  0  0
    1.3203   -3.3416    0.0000 C   0  0  0  0  0  0  0  0  0  0  0  0
    0.5000   -3.8154    0.0000 C   0  0  0  0  0  0  0  0  0  0  0  0
    0.5001   -4.7623    0.0000 C   0  0  0  0  0  0  0  0  0  0  0  0
    2.1406   -1.9208    0.0000 C   0  0  0  0  0  0  0  0  0  0  0  0
    2.9612   -2.3945    0.0000 C   0  0  0  0  0  0  0  0  0  0  0  0
    3.7816   -1.9207    0.0000 C   0  0  0  0  0  0  0  0  0  0  0  0
    3.7815   -0.9738    0.0000 C   0  0  0  0  0  0  0  0  0  0  0  0
    2.9609   -0.5000    0.0000 C   0  0  0  0  0  0  0  0  0  0  0  0
    2.1408   -0.9734    0.0000 C   0  0  0  0  0  0  0  0  0  0  0  0
    2.9610   -3.3419    0.0000 P   0  3  0  0  0  0  0  0  0  0  0  0
    3.7810   -3.8155    0.0000 C   0  0  0  0  0  0  0  0  0  0  0  0
    3.3958   -4.6805    0.0000 C   0  0  0  0  0  0  0  0  0  0  0  0
    3.9523   -5.4466    0.0000 C   0  0  0  0  0  0  0  0  0  0  0  0
    4.8940   -5.3478    0.0000 C   0  0  0  0  0  0  0  0  0  0  0  0
    5.2793   -4.4828    0.0000 C   0  0  0  0  0  0  0  0  0  0  0  0
    4.7228   -3.7166    0.0000 C   0  0  0  0  0  0  0  0  0  0  0  0
    4.6012   -2.3951    0.0000 C   0  0  0  0  0  0  0  0  0  0  0  0
    5.1578   -3.1612    0.0000 C   0  0  0  0  0  0  0  0  0  0  0  0
    6.0995   -3.0623    0.0000 C   0  0  0  0  0  0  0  0  0  0  0  0
    6.4847   -2.1972    0.0000 C   0  0  0  0  0  0  0  0  0  0  0  0
    5.9282   -1.4311    0.0000 C   0  0  0  0  0  0  0  0  0  0  0  0
    4.9864   -1.5300    0.0000 C   0  0  0  0  0  0  0  0  0  0  0  0
  1  2  2  0  0  0  0
  2  3  2  0  0  0  0
  2  4  1  0  0  0  0
  2  8  1  0  0  0  0
  4  5  1  0  0  0  0
  4  6  1  0  0  0  0
  4  7  1  0  0  0  0
  9 10  1  0  0  0  0
 10 11  1  0  0  0  0
 11 16  2  0  0  0  0
 11 12  1  0  0  0  0
 12 13  2  0  0  0  0
 13 23  1  0  0  0  0
 13 14  1  0  0  0  0
 14 15  2  0  0  0  0
 14 17  1  0  0  0  0
 15 16  1  0  0  0  0
 17 22  2  0  0  0  0
 17 18  1  0  0  0  0
 18 19  2  0  0  0  0
 18 23  1  0  0  0  0
 19 20  1  0  0  0  0
 20 21  2  0  0  0  0
 21 22  1  0  0  0  0
 23 24  1  0  0  0  0
 23 30  1  0  0  0  0
 24 29  2  0  0  0  0
 24 25  1  0  0  0  0
 25 26  2  0  0  0  0
 26 27  1  0  0  0  0
 27 28  2  0  0  0  0
 28 29  1  0  0  0  0
 30 35  2  0  0  0  0
 30 31  1  0  0  0  0
 31 32  2  0  0  0  0
 32 33  1  0  0  0  0
 33 34  2  0  0  0  0
 34 35  1  0  0  0  0
M  END
> <NMREDATA_VERSION>
1.1

> <NMREDATA_LEVEL>
0

> <NMREDATA_SOLVENT>
CDCl3

> <NMREDATA_FORMULA>
C26H20F3O4PS

> <NMREDATA_SMILES>
FC(S(=O)(=O)[O-])(F)F.COc1ccc2-c3c([P+](c2c1)(c1ccccc1)c1ccccc1)cccc3

> <NMREDATA_ASSIGNMENT>
P23, 23.08, 23

> <NMREDATA_1D_31P>
Larmor=162
23.08, L=P23

$$$$
