
 OpenBabel06112616472D

 30 33  0  0  0  0  0  0  0  0999 V2000
   -4.0000   -1.0000    0.0000 C   0  0  0  0  0  0  0  0  0  0  0  0
   -3.0000   -1.0000    0.0000 C   0  0  0  0  0  0  0  0  0  0  0  0
   -2.5000   -0.1340    0.0000 C   0  0  0  0  0  0  0  0  0  0  0  0
   -1.5000   -0.1340    0.0000 C   0  0  0  0  0  0  0  0  0  0  0  0
   -1.0000   -1.0000    0.0000 C   0  0  0  0  0  0  0  0  0  0  0  0
    0.0000   -1.0000    0.0000 P   0  0  0  0  0  0  0  0  0  0  0  0
    0.0000   -2.0000    0.0000 O   0  0  0  0  0  0  0  0  0  0  0  0
    1.0000   -1.0000    0.0000 C   0  0  0  0  0  0  0  0  0  0  0  0
    1.5000   -0.1340    0.0000 C   0  0  0  0  0  0  0  0  0  0  0  0
    2.5000   -0.1340    0.0000 C   0  0  0  0  0  0  0  0  0  0  0  0
    3.0000   -1.0000    0.0000 C   0  0  0  0  0  0  0  0  0  0  0  0
    4.0000   -1.0000    0.0000 C   0  0  0  0  0  0  0  0  0  0  0  0
    2.5000   -1.8660    0.0000 C   0  0  0  0  0  0  0  0  0  0  0  0
    1.5000   -1.8660    0.0000 C   0  0  0  0  0  0  0  0  0  0  0  0
    0.0000    0.0000    0.0000 C   0  0  0  0  0  0  0  0  0  0  0  0
   -0.8660    0.5000    0.0000 C   0  0  0  0  0  0  0  0  0  0  0  0
   -0.8660    1.5000    0.0000 C   0  0  0  0  0  0  0  0  0  0  0  0
    0.0000    2.0000    0.0000 C   0  0  0  0  0  0  0  0  0  0  0  0
    0.0000    3.0000    0.0000 C   0  0  0  0  0  0  0  0  0  0  0  0
   -0.8090    3.5878    0.0000 N   0  0  0  0  0  0  0  0  0  0  0  0
   -0.5000    4.5388    0.0000 C   0  0  0  0  0  0  0  0  0  0  0  0
   -0.6045    5.5334    0.0000 C   0  0  0  0  0  0  0  0  0  0  0  0
   -1.4135    4.9456    0.0000 C   0  0  0  0  0  0  0  0  0  0  0  0
    0.5000    4.5388    0.0000 C   0  0  0  0  0  0  0  0  0  0  0  0
    0.8090    3.5878    0.0000 O   0  0  0  0  0  0  0  0  0  0  0  0
    0.8660    1.5000    0.0000 C   0  0  0  0  0  0  0  0  0  0  0  0
    1.7321    2.0000    0.0000 C   0  0  0  0  0  0  0  0  0  0  0  0
    0.8660    0.5000    0.0000 C   0  0  0  0  0  0  0  0  0  0  0  0
   -1.5000   -1.8660    0.0000 C   0  0  0  0  0  0  0  0  0  0  0  0
   -2.5000   -1.8660    0.0000 C   0  0  0  0  0  0  0  0  0  0  0  0
  1  2  1  0  0  0  0
  2 30  2  0  0  0  0
  2  3  1  0  0  0  0
  3  4  2  0  0  0  0
  4  5  1  0  0  0  0
  5  6  1  0  0  0  0
  5 29  2  0  0  0  0
  6  7  2  0  0  0  0
  6  8  1  0  0  0  0
  6 15  1  0  0  0  0
  8 14  2  0  0  0  0
  8  9  1  0  0  0  0
  9 10  2  0  0  0  0
 10 11  1  0  0  0  0
 11 12  1  0  0  0  0
 11 13  2  0  0  0  0
 13 14  1  0  0  0  0
 15 28  2  0  0  0  0
 15 16  1  0  0  0  0
 16 17  2  0  0  0  0
 17 18  1  0  0  0  0
 18 19  1  0  0  0  0
 18 26  2  0  0  0  0
 19 25  1  0  0  0  0
 19 20  2  0  0  0  0
 20 21  1  0  0  0  0
 21 22  1  0  0  0  0
 21 23  1  0  0  0  0
 21 24  1  0  0  0  0
 24 25  1  0  0  0  0
 26 27  1  0  0  0  0
 26 28  1  0  0  0  0
 29 30  1  0  0  0  0
M  END
> <NMREDATA_VERSION>
1.1

> <NMREDATA_LEVEL>
0

> <NMREDATA_SOLVENT>
CDCl3

> <NMREDATA_FORMULA>
C26H28NO2P

> <NMREDATA_SMILES>
Cc1ccc(cc1)P(=O)(c1ccc(cc1)C)c1ccc(c(c1)C)C1=NC(CO1)(C)C

> <NMREDATA_ASSIGNMENT>
P6, 29.00, 6

> <NMREDATA_1D_31P>
Larmor=162
29.00, L=P6

$$$$
