
 OpenBabel06112616482D

 32 37  0  0  0  0  0  0  0  0999 V2000
    0.8485   -1.4696    0.0000 C   0  0  0  0  0  0  0  0  0  0  0  0
    0.8487   -0.4900    0.0000 P   0  0  0  0  0  0  0  0  0  0  0  0
    1.7255   -0.9962    0.0000 O   0  0  0  0  0  0  0  0  0  0  0  0
    1.6972   -0.0003    0.0000 C   0  0  0  0  0  0  0  0  0  0  0  0
    2.5459   -0.4904    0.0000 C   0  0  0  0  0  0  0  0  0  0  0  0
    3.3943   -0.0007    0.0000 C   0  0  0  0  0  0  0  0  0  0  0  0
    3.3945    0.9795    0.0000 C   0  0  0  0  0  0  0  0  0  0  0  0
    4.2430    1.4691    0.0000 C   0  0  0  0  0  0  0  0  0  0  0  0
    4.2945    2.4474    0.0000 C   0  0  0  0  0  0  0  0  0  0  0  0
    5.1674    2.8919    0.0000 C   0  0  0  0  0  0  0  0  0  0  0  0
    5.9888    2.3582    0.0000 C   0  0  0  0  0  0  0  0  0  0  0  0
    5.9373    1.3799    0.0000 C   0  0  0  0  0  0  0  0  0  0  0  0
    5.0644    0.9354    0.0000 C   0  0  0  0  0  0  0  0  0  0  0  0
    2.5463    1.4695    0.0000 C   0  0  0  0  0  0  0  0  0  0  0  0
    1.6974    0.9799    0.0000 C   0  0  0  0  0  0  0  0  0  0  0  0
    0.0002    0.9802    0.0000 C   0  0  0  0  0  0  0  0  0  0  0  0
   -0.8485    1.4702    0.0000 C   0  0  0  0  0  0  0  0  0  0  0  0
   -1.6970    0.9805    0.0000 C   0  0  0  0  0  0  0  0  0  0  0  0
   -2.5452    1.4705    0.0000 C   0  0  0  0  0  0  0  0  0  0  0  0
   -3.5235    1.4194    0.0000 C   0  0  0  0  0  0  0  0  0  0  0  0
   -4.0569    2.2410    0.0000 C   0  0  0  0  0  0  0  0  0  0  0  0
   -3.6120    3.1138    0.0000 C   0  0  0  0  0  0  0  0  0  0  0  0
   -2.6337    3.1649    0.0000 C   0  0  0  0  0  0  0  0  0  0  0  0
   -2.1004    2.3432    0.0000 C   0  0  0  0  0  0  0  0  0  0  0  0
   -1.6972    0.0003    0.0000 C   0  0  0  0  0  0  0  0  0  0  0  0
   -0.8489   -0.4897    0.0000 C   0  0  0  0  0  0  0  0  0  0  0  0
    0.0000    0.0000    0.0000 C   0  0  0  0  0  0  0  0  0  0  0  0
    1.6968   -1.9596    0.0000 C   0  0  0  0  0  0  0  0  0  0  0  0
    1.6966   -2.9392    0.0000 C   0  0  0  0  0  0  0  0  0  0  0  0
    0.8481   -3.4288    0.0000 C   0  0  0  0  0  0  0  0  0  0  0  0
   -0.0001   -2.9388    0.0000 C   0  0  0  0  0  0  0  0  0  0  0  0
    0.0001   -1.9592    0.0000 C   0  0  0  0  0  0  0  0  0  0  0  0
  1 32  2  0  0  0  0
  1  2  1  0  0  0  0
  1 28  1  0  0  0  0
  2 27  1  0  0  0  0
  2  3  2  0  0  0  0
  2  4  1  0  0  0  0
  4 15  2  0  0  0  0
  4  5  1  0  0  0  0
  5  6  2  0  0  0  0
  6  7  1  0  0  0  0
  7  8  1  0  0  0  0
  7 14  2  0  0  0  0
  8 13  2  0  0  0  0
  8  9  1  0  0  0  0
  9 10  2  0  0  0  0
 10 11  1  0  0  0  0
 11 12  2  0  0  0  0
 12 13  1  0  0  0  0
 14 15  1  0  0  0  0
 15 16  1  0  0  0  0
 16 27  2  0  0  0  0
 16 17  1  0  0  0  0
 17 18  2  0  0  0  0
 18 19  1  0  0  0  0
 18 25  1  0  0  0  0
 19 24  2  0  0  0  0
 19 20  1  0  0  0  0
 20 21  2  0  0  0  0
 21 22  1  0  0  0  0
 22 23  2  0  0  0  0
 23 24  1  0  0  0  0
 25 26  2  0  0  0  0
 26 27  1  0  0  0  0
 28 29  2  0  0  0  0
 29 30  1  0  0  0  0
 30 31  2  0  0  0  0
 31 32  1  0  0  0  0
M  END
> <NMREDATA_VERSION>
1.1

> <NMREDATA_LEVEL>
0

> <NMREDATA_SOLVENT>
CDCl3

> <NMREDATA_FORMULA>
C30H21OP

> <NMREDATA_SMILES>
O=P1(c2ccccc2)c2ccc(cc2-c2c1ccc(c2)c1ccccc1)c1ccccc1

> <NMREDATA_ASSIGNMENT>
P2, 34.20, 2

> <NMREDATA_1D_31P>
Larmor=not_known
34.20, L=P2

$$$$
