
 OpenBabel06112616482D

 39 43  0  0  0  0  0  0  0  0999 V2000
   -0.8463   -0.4886    0.0000 C   0  0  0  0  0  0  0  0  0  0  0  0
   -1.6927    0.0000    0.0000 C   0  0  0  0  0  0  0  0  0  0  0  0
   -1.6927    0.9773    0.0000 C   0  0  0  0  0  0  0  0  0  0  0  0
   -0.8463    1.4659    0.0000 C   0  0  0  0  0  0  0  0  0  0  0  0
   -0.8463    3.4205    0.0000 P   0  0  0  0  0  0  0  0  0  0  0  0
    0.0000    3.9091    0.0000 C   0  0  0  0  0  0  0  0  0  0  0  0
    0.0000    4.8864    0.0000 C   0  0  0  0  0  0  0  0  0  0  0  0
    0.8463    5.3750    0.0000 C   0  0  0  0  0  0  0  0  0  0  0  0
    1.6927    4.8864    0.0000 C   0  0  0  0  0  0  0  0  0  0  0  0
    1.6927    3.9091    0.0000 C   0  0  0  0  0  0  0  0  0  0  0  0
    0.8463    3.4205    0.0000 C   0  0  0  0  0  0  0  0  0  0  0  0
   -1.6927    3.9091    0.0000 C   0  0  0  0  0  0  0  0  0  0  0  0
   -2.5390    3.4205    0.0000 C   0  0  0  0  0  0  0  0  0  0  0  0
   -2.5390    2.4432    0.0000 C   0  0  0  0  0  0  0  0  0  0  0  0
   -3.3854    1.9545    0.0000 N   0  0  0  0  0  0  0  0  0  0  0  0
   -4.2317    2.4432    0.0000 C   0  0  0  0  0  0  0  0  0  0  0  0
   -5.0781    1.9545    0.0000 C   0  0  0  0  0  0  0  0  0  0  0  0
   -5.0781    0.9773    0.0000 N   0  0  0  0  0  0  0  0  0  0  0  0
   -5.9244    0.4886    0.0000 C   0  0  0  0  0  0  0  0  0  0  0  0
   -5.9244   -0.4886    0.0000 N   0  0  0  0  0  0  0  0  0  0  0  0
   -6.7707   -0.9773    0.0000 C   0  0  0  0  0  0  0  0  0  0  0  0
   -6.7707   -1.9545    0.0000 O   0  0  0  0  0  0  0  0  0  0  0  0
   -7.6171   -2.4432    0.0000 C   0  0  0  0  0  0  0  0  0  0  0  0
   -7.6171   -0.4886    0.0000 N   0  0  0  0  0  0  0  0  0  0  0  0
   -7.6171    0.4886    0.0000 C   0  0  0  0  0  0  0  0  0  0  0  0
   -8.4634    0.9773    0.0000 O   0  0  0  0  0  0  0  0  0  0  0  0
   -9.3098    0.4886    0.0000 C   0  0  0  0  0  0  0  0  0  0  0  0
   -6.7707    0.9773    0.0000 N   0  0  0  0  0  0  0  0  0  0  0  0
   -5.9244    2.4432    0.0000 C   0  0  0  0  0  0  0  0  0  0  0  0
   -5.9244    3.4205    0.0000 C   0  0  0  0  0  0  0  0  0  0  0  0
   -5.0781    3.9091    0.0000 C   0  0  0  0  0  0  0  0  0  0  0  0
   -4.2317    3.4205    0.0000 C   0  0  0  0  0  0  0  0  0  0  0  0
   -1.6927    1.9545    0.0000 O   0  0  0  0  0  0  0  0  0  0  0  0
   -3.3854    3.9091    0.0000 C   0  0  0  0  0  0  0  0  0  0  0  0
   -3.3854    4.8864    0.0000 C   0  0  0  0  0  0  0  0  0  0  0  0
   -2.5390    5.3750    0.0000 C   0  0  0  0  0  0  0  0  0  0  0  0
   -1.6927    4.8864    0.0000 C   0  0  0  0  0  0  0  0  0  0  0  0
    0.0000    0.9773    0.0000 C   0  0  0  0  0  0  0  0  0  0  0  0
    0.0000    0.0000    0.0000 C   0  0  0  0  0  0  0  0  0  0  0  0
  1 39  2  0  0  0  0
  1  2  1  0  0  0  0
  2  3  2  0  0  0  0
  3  4  1  0  0  0  0
  4  5  1  0  0  0  0
  4 38  2  0  0  0  0
  5  6  1  0  0  0  0
  5 12  1  0  0  0  0
  6 11  2  0  0  0  0
  6  7  1  0  0  0  0
  7  8  2  0  0  0  0
  8  9  1  0  0  0  0
  9 10  2  0  0  0  0
 10 11  1  0  0  0  0
 12 37  2  0  0  0  0
 12 13  1  0  0  0  0
 13 14  1  0  0  0  0
 13 34  2  0  0  0  0
 14 15  1  0  0  0  0
 14 33  2  0  0  0  0
 15 16  1  0  0  0  0
 16 32  2  0  0  0  0
 16 17  1  0  0  0  0
 17 18  1  0  0  0  0
 17 29  2  0  0  0  0
 18 19  1  0  0  0  0
 19 28  2  0  0  0  0
 19 20  1  0  0  0  0
 20 21  2  0  0  0  0
 21 22  1  0  0  0  0
 21 24  1  0  0  0  0
 22 23  1  0  0  0  0
 24 25  2  0  0  0  0
 25 26  1  0  0  0  0
 25 28  1  0  0  0  0
 26 27  1  0  0  0  0
 29 30  1  0  0  0  0
 30 31  2  0  0  0  0
 31 32  1  0  0  0  0
 34 35  1  0  0  0  0
 35 36  2  0  0  0  0
 36 37  1  0  0  0  0
 38 39  1  0  0  0  0
M  END
> <NMREDATA_VERSION>
1.1

> <NMREDATA_LEVEL>
0

> <NMREDATA_SOLVENT>
CDCl3

> <NMREDATA_FORMULA>
C30H26N5O3P

> <NMREDATA_SMILES>
COc1nc(nc(n1)OC)Nc1ccccc1NC(=O)c1ccccc1P(c1ccccc1)c1ccccc1

> <NMREDATA_ASSIGNMENT>
P5, -10.68, 5

> <NMREDATA_1D_31P>
Larmor=243
-10.68, L=P5

$$$$
