
 OpenBabel06112616462D

 39 44  0  0  0  0  0  0  0  0999 V2000
   -0.8468    2.4444    0.0000 C   0  0  0  0  0  0  0  0  0  0  0  0
   -0.8468    1.4667    0.0000 C   0  0  0  0  0  0  0  0  0  0  0  0
   -1.6936    0.9778    0.0000 C   0  0  0  0  0  0  0  0  0  0  0  0
    0.0000    0.9778    0.0000 C   0  0  0  0  0  0  0  0  0  0  0  0
    0.8468    1.4667    0.0000 C   0  0  0  0  0  0  0  0  0  0  0  0
    1.6936    0.9778    0.0000 C   0  0  0  0  0  0  0  0  0  0  0  0
    2.5403    1.4667    0.0000 P   0  0  0  0  0  0  0  0  0  0  0  0
    4.2339    0.4889    0.0000 C   0  0  0  0  0  0  0  0  0  0  0  0
    5.0807    0.9778    0.0000 C   0  0  0  0  0  0  0  0  0  0  0  0
    5.0807    1.9556    0.0000 C   0  0  0  0  0  0  0  0  0  0  0  0
    5.9275    2.4444    0.0000 C   0  0  0  0  0  0  0  0  0  0  0  0
    5.9275    3.4222    0.0000 C   0  0  0  0  0  0  0  0  0  0  0  0
    6.7742    3.9111    0.0000 C   0  0  0  0  0  0  0  0  0  0  0  0
    7.6210    3.4222    0.0000 C   0  0  0  0  0  0  0  0  0  0  0  0
    7.6210    2.4444    0.0000 C   0  0  0  0  0  0  0  0  0  0  0  0
    6.7742    1.9556    0.0000 C   0  0  0  0  0  0  0  0  0  0  0  0
    5.0807    3.9111    0.0000 C   0  0  0  0  0  0  0  0  0  0  0  0
    4.2339    3.4222    0.0000 C   0  0  0  0  0  0  0  0  0  0  0  0
    4.2339    2.4444    0.0000 C   0  0  0  0  0  0  0  0  0  0  0  0
    5.9275    0.4889    0.0000 C   0  0  0  0  0  0  0  0  0  0  0  0
    5.9275   -0.4889    0.0000 C   0  0  0  0  0  0  0  0  0  0  0  0
    6.7742   -0.9778    0.0000 C   0  0  0  0  0  0  0  0  0  0  0  0
    7.6210   -0.4889    0.0000 C   0  0  0  0  0  0  0  0  0  0  0  0
    7.6210    0.4889    0.0000 C   0  0  0  0  0  0  0  0  0  0  0  0
    6.7742    0.9778    0.0000 C   0  0  0  0  0  0  0  0  0  0  0  0
    5.0807   -0.9778    0.0000 C   0  0  0  0  0  0  0  0  0  0  0  0
    4.2339   -0.4889    0.0000 C   0  0  0  0  0  0  0  0  0  0  0  0
    2.5403    2.4444    0.0000 C   0  0  0  0  0  0  0  0  0  0  0  0
    1.6936    2.9333    0.0000 C   0  0  0  0  0  0  0  0  0  0  0  0
    1.6936    3.9111    0.0000 C   0  0  0  0  0  0  0  0  0  0  0  0
    0.8468    4.4000    0.0000 C   0  0  0  0  0  0  0  0  0  0  0  0
    0.8468    5.3778    0.0000 C   0  0  0  0  0  0  0  0  0  0  0  0
    0.0000    3.9111    0.0000 C   0  0  0  0  0  0  0  0  0  0  0  0
    2.5403    4.4000    0.0000 C   0  0  0  0  0  0  0  0  0  0  0  0
    3.3871    3.9111    0.0000 C   0  0  0  0  0  0  0  0  0  0  0  0
    3.3871    2.9333    0.0000 C   0  0  0  0  0  0  0  0  0  0  0  0
    1.6936    0.0000    0.0000 C   0  0  0  0  0  0  0  0  0  0  0  0
    0.8468   -0.4889    0.0000 C   0  0  0  0  0  0  0  0  0  0  0  0
    0.0000    0.0000    0.0000 C   0  0  0  0  0  0  0  0  0  0  0  0
  1  2  1  0  0  0  0
  2  3  1  0  0  0  0
  2  4  1  0  0  0  0
  4 39  2  0  0  0  0
  4  5  1  0  0  0  0
  5  6  2  0  0  0  0
  6  7  1  0  0  0  0
  6 37  1  0  0  0  0
  7  8  1  0  0  0  0
  7 28  1  0  0  0  0
  8 27  2  0  0  0  0
  8  9  1  0  0  0  0
  9 10  1  0  0  0  0
  9 20  2  0  0  0  0
 10 19  2  0  0  0  0
 10 11  1  0  0  0  0
 11 16  2  0  0  0  0
 11 12  1  0  0  0  0
 12 13  2  0  0  0  0
 12 17  1  0  0  0  0
 13 14  1  0  0  0  0
 14 15  2  0  0  0  0
 15 16  1  0  0  0  0
 17 18  2  0  0  0  0
 18 19  1  0  0  0  0
 20 25  1  0  0  0  0
 20 21  1  0  0  0  0
 21 22  1  0  0  0  0
 21 26  2  0  0  0  0
 22 23  2  0  0  0  0
 23 24  1  0  0  0  0
 24 25  2  0  0  0  0
 26 27  1  0  0  0  0
 28 36  2  0  0  0  0
 28 29  1  0  0  0  0
 29 30  2  0  0  0  0
 30 31  1  0  0  0  0
 30 34  1  0  0  0  0
 31 32  1  0  0  0  0
 31 33  1  0  0  0  0
 34 35  2  0  0  0  0
 35 36  1  0  0  0  0
 37 38  2  0  0  0  0
 38 39  1  0  0  0  0
M  END
> <NMREDATA_VERSION>
1.1

> <NMREDATA_LEVEL>
0

> <NMREDATA_SOLVENT>
CDCl3

> <NMREDATA_FORMULA>
C38H35P

> <NMREDATA_SMILES>
CC(c1cccc(c1)P(c1ccc2c(c1c1cccc3c1cccc3)cccc2)c1cccc(c1)C(C)C)C

> <NMREDATA_ASSIGNMENT>
P7, -13.31, 7

> <NMREDATA_1D_31P>
Larmor=202
-13.31, L=P7

$$$$
