
 OpenBabel06112616472D

 35 38  0  0  0  0  0  0  0  0999 V2000
    0.3660   -2.3660    0.0000 C    0  0  0  0  0  0  0  0  0  0  0  0
    1.3660   -2.3660    0.0000 C    0  0  0  0  0  0  0  0  0  0  0  0
    1.8660   -1.5000    0.0000 C    0  0  0  0  0  0  0  0  0  0  0  0
    2.7321   -2.0000    0.0000 C    0  0  0  0  0  0  0  0  0  0  0  0
    3.5981   -2.5000    0.0000 C    0  0  0  0  0  0  0  0  0  0  0  0
    4.4641   -3.0000    0.0000 C    0  0  0  0  0  0  0  0  0  0  0  0
    5.3301   -2.5000    0.0000 N    0  0  0  0  0  0  0  0  0  0  0  0
    5.4347   -1.5055    0.0000 C    0  0  0  0  0  0  0  0  0  0  0  0
    6.4128   -1.2976    0.0000 C    0  0  0  0  0  0  0  0  0  0  0  0
    6.8195   -0.3840    0.0000 Br   0  0  0  0  0  0  0  0  0  0  0  0
    6.9128   -2.1636    0.0000 C    0  0  0  0  0  0  0  0  0  0  0  0
    7.9073   -2.2681    0.0000 C    0  0  0  0  0  0  0  0  0  0  0  0
    8.4951   -1.4591    0.0000 C    0  0  0  0  0  0  0  0  0  0  0  0
    9.4896   -1.5636    0.0000 C    0  0  0  0  0  0  0  0  0  0  0  0
    9.8964   -2.4772    0.0000 C    0  0  0  0  0  0  0  0  0  0  0  0
    9.3086   -3.2862    0.0000 C    0  0  0  0  0  0  0  0  0  0  0  0
    8.3141   -3.1817    0.0000 C    0  0  0  0  0  0  0  0  0  0  0  0
    6.2437   -2.9067    0.0000 N    0  0  0  0  0  0  0  0  0  0  0  0
    2.3660   -0.6340    0.0000 C    0  0  0  0  0  0  0  0  0  0  0  0
    3.3660   -0.6340    0.0000 C    0  0  0  0  0  0  0  0  0  0  0  0
    1.0000   -1.0000    0.0000 O    0  0  0  0  0  0  0  0  0  0  0  0
    1.0000    0.0000    0.0000 P    0  0  0  0  0  0  0  0  0  0  0  0
    2.0000    0.0000    0.0000 O    0  0  0  0  0  0  0  0  0  0  0  0
    1.0000    1.0000    0.0000 C    0  0  0  0  0  0  0  0  0  0  0  0
    0.1340    1.5000    0.0000 C    0  0  0  0  0  0  0  0  0  0  0  0
    0.1340    2.5000    0.0000 C    0  0  0  0  0  0  0  0  0  0  0  0
    1.0000    3.0000    0.0000 C    0  0  0  0  0  0  0  0  0  0  0  0
    1.8660    2.5000    0.0000 C    0  0  0  0  0  0  0  0  0  0  0  0
    1.8660    1.5000    0.0000 C    0  0  0  0  0  0  0  0  0  0  0  0
    0.0000    0.0000    0.0000 C    0  0  0  0  0  0  0  0  0  0  0  0
   -0.5000   -0.8660    0.0000 C    0  0  0  0  0  0  0  0  0  0  0  0
   -1.5000   -0.8660    0.0000 C    0  0  0  0  0  0  0  0  0  0  0  0
   -2.0000    0.0000    0.0000 C    0  0  0  0  0  0  0  0  0  0  0  0
   -1.5000    0.8660    0.0000 C    0  0  0  0  0  0  0  0  0  0  0  0
   -0.5000    0.8660    0.0000 C    0  0  0  0  0  0  0  0  0  0  0  0
  1  2  1  0  0  0  0
  2  3  1  0  0  0  0
  3  4  1  0  0  0  0
  3 19  1  0  0  0  0
  3 21  1  0  0  0  0
  4  5  3  0  0  0  0
  5  6  1  0  0  0  0
  6  7  1  0  0  0  0
  7 18  1  0  0  0  0
  7  8  1  0  0  0  0
  8  9  2  0  0  0  0
  9 10  1  0  0  0  0
  9 11  1  0  0  0  0
 11 12  1  0  0  0  0
 11 18  2  0  0  0  0
 12 17  2  0  0  0  0
 12 13  1  0  0  0  0
 13 14  2  0  0  0  0
 14 15  1  0  0  0  0
 15 16  2  0  0  0  0
 16 17  1  0  0  0  0
 19 20  1  0  0  0  0
 21 22  1  0  0  0  0
 22 23  2  0  0  0  0
 22 24  1  0  0  0  0
 22 30  1  0  0  0  0
 24 29  2  0  0  0  0
 24 25  1  0  0  0  0
 25 26  2  0  0  0  0
 26 27  1  0  0  0  0
 27 28  2  0  0  0  0
 28 29  1  0  0  0  0
 30 35  2  0  0  0  0
 30 31  1  0  0  0  0
 31 32  2  0  0  0  0
 32 33  1  0  0  0  0
 33 34  2  0  0  0  0
 34 35  1  0  0  0  0
M  END
> <NMREDATA_VERSION>
1.1

> <NMREDATA_LEVEL>
0

> <NMREDATA_SOLVENT>
CDCl3

> <NMREDATA_FORMULA>
C29H28BrN2O2P

> <NMREDATA_SMILES>
CCC(OP(=O)(c1ccccc1)c1ccccc1)(C#CCn1nc(c(c1)Br)c1ccccc1)CC

> <NMREDATA_ASSIGNMENT>
P22, 27.83, 22

> <NMREDATA_1D_31P>
Larmor=162
27.83, L=P22

$$$$
