
 OpenBabel06112616432D

 46 52  0  0  1  0  0  0  0  0999 V2000
   -0.9858   -3.4303    0.0000 C   0  0  0  0  0  0  0  0  0  0  0  0
   -0.2279   -2.8072    0.0000 O   0  0  0  0  0  0  0  0  0  0  0  0
   -0.3887   -1.8393    0.0000 C   0  0  0  0  0  0  0  0  0  0  0  0
    0.3692   -1.2161    0.0000 O   0  0  0  0  0  0  0  0  0  0  0  0
   -1.3072   -1.4945    0.0000 C   0  0  2  0  0  0  0  0  0  0  0  0
   -2.1261   -2.0350    0.0000 C   0  0  0  0  0  0  0  0  0  0  0  0
   -2.8931   -1.4233    0.0000 C   0  0  0  0  0  0  0  0  0  0  0  0
   -2.5484   -0.5047    0.0000 C   0  0  1  0  0  0  0  0  0  0  0  0
   -3.6294    1.1329    0.0000 C   0  0  0  0  0  0  0  0  0  0  0  0
   -3.1905    2.0104    0.0000 C   0  0  0  0  0  0  0  0  0  0  0  0
   -3.7310    2.8292    0.0000 C   0  0  0  0  0  0  0  0  0  0  0  0
   -3.2922    3.7067    0.0000 C   0  0  0  0  0  0  0  0  0  0  0  0
   -2.4733    4.2472    0.0000 C   0  0  0  0  0  0  0  0  0  0  0  0
   -2.4147    3.2679    0.0000 C   0  0  0  0  0  0  0  0  0  0  0  0
   -3.8327    4.5256    0.0000 C   0  0  0  0  0  0  0  0  0  0  0  0
   -4.7104    2.7706    0.0000 C   0  0  0  0  0  0  0  0  0  0  0  0
   -5.1493    1.8931    0.0000 C   0  0  0  0  0  0  0  0  0  0  0  0
   -6.1287    1.8344    0.0000 C   0  0  0  0  0  0  0  0  0  0  0  0
   -7.0062    2.2733    0.0000 C   0  0  0  0  0  0  0  0  0  0  0  0
   -6.1873    2.8138    0.0000 C   0  0  0  0  0  0  0  0  0  0  0  0
   -6.5675    0.9569    0.0000 C   0  0  0  0  0  0  0  0  0  0  0  0
   -4.6088    1.0742    0.0000 C   0  0  0  0  0  0  0  0  0  0  0  0
   -1.5683   -0.5488    0.0000 N   0  0  0  0  0  0  0  0  0  0  0  0
   -0.9565    0.2183    0.0000 P   0  0  0  0  0  0  0  0  0  0  0  0
   -1.3822    1.1023    0.0000 O   0  0  0  0  0  0  0  0  0  0  0  0
   -0.9565    1.9863    0.0000 C   0  0  0  0  0  0  0  0  0  0  0  0
   -1.6239    2.7055    0.0000 C   0  0  0  0  0  0  0  0  0  0  0  0
   -1.3347    3.6430    0.0000 C   0  0  0  0  0  0  0  0  0  0  0  0
   -0.3781    3.8613    0.0000 C   0  0  0  0  0  0  0  0  0  0  0  0
   -0.0890    4.7989    0.0000 C   0  0  0  0  0  0  0  0  0  0  0  0
    0.8676    5.0172    0.0000 C   0  0  0  0  0  0  0  0  0  0  0  0
    1.5349    4.2980    0.0000 C   0  0  0  0  0  0  0  0  0  0  0  0
    1.2457    3.3604    0.0000 C   0  0  0  0  0  0  0  0  0  0  0  0
    0.2892    3.1421    0.0000 C   0  0  0  0  0  0  0  0  0  0  0  0
    0.0000    2.2046    0.0000 C   0  0  0  0  0  0  0  0  0  0  0  0
    0.7671    1.5929    0.0000 C   0  0  0  0  0  0  0  0  0  0  0  0
    0.7671    0.6117    0.0000 C   0  0  0  0  0  0  0  0  0  0  0  0
    1.6168    0.1212    0.0000 C   0  0  0  0  0  0  0  0  0  0  0  0
    2.4665    0.6117    0.0000 C   0  0  0  0  0  0  0  0  0  0  0  0
    2.4665    1.5929    0.0000 C   0  0  0  0  0  0  0  0  0  0  0  0
    3.3161    2.0834    0.0000 C   0  0  0  0  0  0  0  0  0  0  0  0
    3.3161    3.0646    0.0000 C   0  0  0  0  0  0  0  0  0  0  0  0
    2.4665    3.5551    0.0000 C   0  0  0  0  0  0  0  0  0  0  0  0
    1.6168    3.0646    0.0000 C   0  0  0  0  0  0  0  0  0  0  0  0
    1.6168    2.0834    0.0000 C   0  0  0  0  0  0  0  0  0  0  0  0
    0.0000    0.0000    0.0000 O   0  0  0  0  0  0  0  0  0  0  0  0
  1  2  1  0  0  0  0
  2  3  1  0  0  0  0
  3  4  2  0  0  0  0
  5  3  1  6  0  0  0
  5  6  1  0  0  0  0
  5 23  1  0  0  0  0
  6  7  1  0  0  0  0
  7  8  1  0  0  0  0
  8  9  1  1  0  0  0
  8 23  1  0  0  0  0
  9 22  2  0  0  0  0
  9 10  1  0  0  0  0
 10 11  2  0  0  0  0
 11 12  1  0  0  0  0
 11 16  1  0  0  0  0
 12 13  1  0  0  0  0
 12 14  1  0  0  0  0
 12 15  1  0  0  0  0
 16 17  2  0  0  0  0
 17 18  1  0  0  0  0
 17 22  1  0  0  0  0
 18 19  1  0  0  0  0
 18 20  1  0  0  0  0
 18 21  1  0  0  0  0
 23 24  1  0  0  0  0
 24 46  1  0  0  0  0
 24 25  1  0  0  0  0
 25 26  1  0  0  0  0
 26 35  2  0  0  0  0
 26 27  1  0  0  0  0
 27 28  2  0  0  0  0
 28 29  1  0  0  0  0
 29 34  2  0  0  0  0
 29 30  1  0  0  0  0
 30 31  2  0  0  0  0
 31 32  1  0  0  0  0
 32 33  2  0  0  0  0
 33 34  1  0  0  0  0
 34 35  1  0  0  0  0
 35 36  1  0  0  0  0
 36 45  2  0  0  0  0
 36 37  1  0  0  0  0
 37 38  2  0  0  0  0
 37 46  1  0  0  0  0
 38 39  1  0  0  0  0
 39 40  2  0  0  0  0
 40 45  1  0  0  0  0
 40 41  1  0  0  0  0
 41 42  2  0  0  0  0
 42 43  1  0  0  0  0
 43 44  2  0  0  0  0
 44 45  1  0  0  0  0
M  END
> <NMREDATA_VERSION>
1.1

> <NMREDATA_LEVEL>
0

> <NMREDATA_SOLVENT>
CDCl3

> <NMREDATA_FORMULA>
C40H42NO4P

> <NMREDATA_SMILES>
COC(=O)[C@@H]1CC[C@H](N1p1oc2ccc3c(c2c2c(o1)ccc1c2cccc1)cccc3)c1cc(cc(c1)C(C)(C)C)C(C)(C)C

> <NMREDATA_ASSIGNMENT>
P24, 144.40, 24

> <NMREDATA_1D_31P>
Larmor=162
144.40, L=P24

$$$$
