
 OpenBabel06112616482D

 41 44  0  0  1  0  0  0  0  0999 V2000
    0.8107    0.4681    0.0000 C   0  0  0  0  0  0  0  0  0  0  0  0
    1.6215    0.0000    0.0000 C   0  0  0  0  0  0  0  0  0  0  0  0
    1.6215   -0.9362    0.0000 C   0  0  0  0  0  0  0  0  0  0  0  0
    0.8107   -1.4043    0.0000 C   0  0  0  0  0  0  0  0  0  0  0  0
    0.8107   -2.3404    0.0000 P   0  0  0  0  0  0  0  0  0  0  0  0
    0.0000   -2.8085    0.0000 C   0  0  0  0  0  0  0  0  0  0  0  0
    0.0000   -3.7447    0.0000 C   0  0  0  0  0  0  0  0  0  0  0  0
   -0.8107   -4.2128    0.0000 C   0  0  0  0  0  0  0  0  0  0  0  0
   -1.6215   -3.7447    0.0000 C   0  0  0  0  0  0  0  0  0  0  0  0
   -1.6215   -2.8085    0.0000 C   0  0  0  0  0  0  0  0  0  0  0  0
   -0.8107   -2.3404    0.0000 C   0  0  0  0  0  0  0  0  0  0  0  0
    4.0537   -4.2128    0.0000 C   0  0  0  0  0  0  0  0  0  0  0  0
    4.8645   -3.7447    0.0000 C   0  0  0  0  0  0  0  0  0  0  0  0
    4.8645   -2.8085    0.0000 C   0  0  2  0  0  0  0  0  0  0  0  0
    5.6752   -2.3404    0.0000 C   0  0  0  0  0  0  0  0  0  0  0  0
    6.4860   -2.8085    0.0000 C   0  0  0  0  0  0  0  0  0  0  0  0
    7.2967   -2.3404    0.0000 C   0  0  0  0  0  0  0  0  0  0  0  0
    8.1075   -2.8085    0.0000 C   0  0  0  0  0  0  0  0  0  0  0  0
    8.5756   -3.6193    0.0000 C   0  0  0  0  0  0  0  0  0  0  0  0
    7.6394   -3.6193    0.0000 C   0  0  0  0  0  0  0  0  0  0  0  0
    8.9182   -2.3404    0.0000 C   0  0  0  0  0  0  0  0  0  0  0  0
    7.2967   -1.4043    0.0000 C   0  0  0  0  0  0  0  0  0  0  0  0
    6.4860   -0.9362    0.0000 C   0  0  0  0  0  0  0  0  0  0  0  0
    6.4860    0.0000    0.0000 C   0  0  0  0  0  0  0  0  0  0  0  0
    6.9541    0.8107    0.0000 C   0  0  0  0  0  0  0  0  0  0  0  0
    7.4221    0.0000    0.0000 C   0  0  0  0  0  0  0  0  0  0  0  0
    5.6752    0.4681    0.0000 C   0  0  0  0  0  0  0  0  0  0  0  0
    5.6752   -1.4043    0.0000 C   0  0  0  0  0  0  0  0  0  0  0  0
    4.0537   -2.3404    0.0000 N   0  0  0  0  0  0  0  0  0  0  0  0
    4.0537   -1.4043    0.0000 S   0  0  2  0  0  0  0  0  0  0  0  0
    4.8645   -0.9362    0.0000 C   0  0  0  0  0  0  0  0  0  0  0  0
    5.8007   -0.9362    0.0000 C   0  0  0  0  0  0  0  0  0  0  0  0
    5.3326   -1.7469    0.0000 C   0  0  0  0  0  0  0  0  0  0  0  0
    4.8645    0.0000    0.0000 C   0  0  0  0  0  0  0  0  0  0  0  0
    3.2430   -0.9362    0.0000 O   0  0  0  0  0  0  0  0  0  0  0  0
    5.6752   -4.2128    0.0000 C   0  0  0  0  0  0  0  0  0  0  0  0
    5.6752   -5.1489    0.0000 C   0  0  0  0  0  0  0  0  0  0  0  0
    4.8645   -5.6170    0.0000 C   0  0  0  0  0  0  0  0  0  0  0  0
    4.0537   -5.1489    0.0000 C   0  0  0  0  0  0  0  0  0  0  0  0
    0.0000   -0.9362    0.0000 C   0  0  0  0  0  0  0  0  0  0  0  0
    0.0000    0.0000    0.0000 C   0  0  0  0  0  0  0  0  0  0  0  0
  1 41  2  0  0  0  0
  1  2  1  0  0  0  0
  2  3  2  0  0  0  0
  3  4  1  0  0  0  0
  4  5  1  0  0  0  0
  4 40  2  0  0  0  0
  5  6  1  0  0  0  0
  5 12  1  0  0  0  0
  6 11  2  0  0  0  0
  6  7  1  0  0  0  0
  7  8  2  0  0  0  0
  8  9  1  0  0  0  0
  9 10  2  0  0  0  0
 10 11  1  0  0  0  0
 12 39  2  0  0  0  0
 12 13  1  0  0  0  0
 13 14  1  0  0  0  0
 13 36  2  0  0  0  0
 14 15  1  0  0  0  0
 14 29  1  1  0  0  0
 15 28  2  0  0  0  0
 15 16  1  0  0  0  0
 16 17  2  0  0  0  0
 17 18  1  0  0  0  0
 17 22  1  0  0  0  0
 18 19  1  0  0  0  0
 18 20  1  0  0  0  0
 18 21  1  0  0  0  0
 22 23  2  0  0  0  0
 23 24  1  0  0  0  0
 23 28  1  0  0  0  0
 24 25  1  0  0  0  0
 24 26  1  0  0  0  0
 24 27  1  0  0  0  0
 29 30  1  0  0  0  0
 30 31  1  0  0  0  0
 30 35  2  1  0  0  0
 31 32  1  0  0  0  0
 31 33  1  0  0  0  0
 31 34  1  0  0  0  0
 36 37  1  0  0  0  0
 37 38  2  0  0  0  0
 38 39  1  0  0  0  0
 40 41  1  0  0  0  0
M  END
> <NMREDATA_VERSION>
1.1

> <NMREDATA_LEVEL>
0

> <NMREDATA_SOLVENT>
CDCl3

> <NMREDATA_FORMULA>
C37H46NOPS

> <NMREDATA_SMILES>
O=[S@@](C(C)(C)C)N[C@H](c1ccccc1P(c1ccccc1)c1ccccc1)c1cc(cc(c1)C(C)(C)C)C(C)(C)C

> <NMREDATA_ASSIGNMENT>
P5, -18.91, 5

> <NMREDATA_1D_31P>
Larmor=162
-18.91, L=P5

$$$$
