
 OpenBabel06112616482D

 17 18  0  0  0  0  0  0  0  0999 V2000
    -4.000    -1.000     0.000 C   0  0  0  0  0  0  0  0  0  0  0  0
    -3.000    -1.000     0.000 C   0  0  0  0  0  0  0  0  0  0  0  0
    -2.500    -0.134     0.000 C   0  0  0  0  0  0  0  0  0  0  0  0
    -1.500    -0.134     0.000 C   0  0  0  0  0  0  0  0  0  0  0  0
    -1.000    -1.000     0.000 C   0  0  0  0  0  0  0  0  0  0  0  0
     0.000    -1.000     0.000 P   0  0  3  0  0  0  0  0  0  0  0  0
     0.000    -2.000     0.000 O   0  0  0  0  0  0  0  0  0  0  0  0
     1.000    -1.000     0.000 O   0  0  0  0  0  0  0  0  0  0  0  0
     1.500    -1.866     0.000 C   0  0  0  0  0  0  0  0  0  0  0  0
     0.000     0.000     0.000 C   0  0  0  0  0  0  0  0  0  0  0  0
    -0.866     0.500     0.000 C   0  0  0  0  0  0  0  0  0  0  0  0
    -0.866     1.500     0.000 C   0  0  0  0  0  0  0  0  0  0  0  0
     0.000     2.000     0.000 C   0  0  0  0  0  0  0  0  0  0  0  0
     0.866     1.500     0.000 C   0  0  0  0  0  0  0  0  0  0  0  0
     0.866     0.500     0.000 C   0  0  0  0  0  0  0  0  0  0  0  0
    -1.500    -1.866     0.000 C   0  0  0  0  0  0  0  0  0  0  0  0
    -2.500    -1.866     0.000 C   0  0  0  0  0  0  0  0  0  0  0  0
  1  2  1  0  0  0  0
  2 17  2  0  0  0  0
  2  3  1  0  0  0  0
  3  4  2  0  0  0  0
  4  5  1  0  0  0  0
  5  6  1  0  0  0  0
  5 16  2  0  0  0  0
  6  7  2  0  0  0  0
  6  8  1  0  0  0  0
  6 10  1  0  0  0  0
  8  9  1  0  0  0  0
 10 15  2  0  0  0  0
 10 11  1  0  0  0  0
 11 12  2  0  0  0  0
 12 13  1  0  0  0  0
 13 14  2  0  0  0  0
 14 15  1  0  0  0  0
 16 17  1  0  0  0  0
M  END
> <NMREDATA_VERSION>
1.1

> <NMREDATA_LEVEL>
0

> <NMREDATA_SOLVENT>
CDCl3

> <NMREDATA_FORMULA>
C14H15O2P

> <NMREDATA_SMILES>
COP(=O)(c1ccccc1)c1ccc(cc1)C

> <NMREDATA_ASSIGNMENT>
P6, 33.68, 6

> <NMREDATA_1D_31P>
Larmor=162
33.68, L=P6

$$$$
