
 OpenBabel06112616492D

 20 22  0  0  0  0  0  0  0  0999 V2000
     1.000    -3.000     0.000 C   0  0  0  0  0  0  0  0  0  0  0  0
     0.134    -2.500     0.000 C   0  0  0  0  0  0  0  0  0  0  0  0
     0.134    -1.500     0.000 C   0  0  0  0  0  0  0  0  0  0  0  0
     1.000    -1.000     0.000 C   0  0  0  0  0  0  0  0  0  0  0  0
     1.000     0.000     0.000 P   0  0  0  0  0  0  0  0  0  0  0  0
     2.000     0.000     0.000 C   0  0  0  0  0  0  0  0  0  0  0  0
     2.500     0.866     0.000 C   0  0  0  0  0  0  0  0  0  0  0  0
     3.500     0.866     0.000 C   0  0  0  0  0  0  0  0  0  0  0  0
     4.000     0.000     0.000 C   0  0  0  0  0  0  0  0  0  0  0  0
     3.500    -0.866     0.000 C   0  0  0  0  0  0  0  0  0  0  0  0
     2.500    -0.866     0.000 C   0  0  0  0  0  0  0  0  0  0  0  0
     1.000     1.000     0.000 O   0  0  0  0  0  0  0  0  0  0  0  0
     0.000     0.000     0.000 N   0  0  0  0  0  0  0  0  0  0  0  0
    -0.500    -0.866     0.000 C   0  0  0  0  0  0  0  0  0  0  0  0
    -1.500    -0.866     0.000 C   0  0  0  0  0  0  0  0  0  0  0  0
    -2.000     0.000     0.000 C   0  0  0  0  0  0  0  0  0  0  0  0
    -1.500     0.866     0.000 C   0  0  0  0  0  0  0  0  0  0  0  0
    -0.500     0.866     0.000 C   0  0  0  0  0  0  0  0  0  0  0  0
     1.866    -1.500     0.000 C   0  0  0  0  0  0  0  0  0  0  0  0
     1.866    -2.500     0.000 C   0  0  0  0  0  0  0  0  0  0  0  0
  1 20  2  0  0  0  0
  1  2  1  0  0  0  0
  2  3  2  0  0  0  0
  3  4  1  0  0  0  0
  4  5  1  0  0  0  0
  4 19  2  0  0  0  0
  5  6  1  0  0  0  0
  5 12  2  0  0  0  0
  5 13  1  0  0  0  0
  6 11  2  0  0  0  0
  6  7  1  0  0  0  0
  7  8  2  0  0  0  0
  8  9  1  0  0  0  0
  9 10  2  0  0  0  0
 10 11  1  0  0  0  0
 13 18  1  0  0  0  0
 13 14  1  0  0  0  0
 14 15  1  0  0  0  0
 15 16  1  0  0  0  0
 16 17  1  0  0  0  0
 17 18  1  0  0  0  0
 19 20  1  0  0  0  0
M  END
> <NMREDATA_VERSION>
1.1

> <NMREDATA_LEVEL>
0

> <NMREDATA_SOLVENT>
CDCl3

> <NMREDATA_FORMULA>
C17H20NOP

> <NMREDATA_SMILES>
O=P(c1ccccc1)(c1ccccc1)N1CCCCC1

> <NMREDATA_ASSIGNMENT>
P5, 28.90, 5

> <NMREDATA_1D_31P>
Larmor=162
28.90, L=P5

$$$$
