
 OpenBabel06112616492D

 39 44  0  0  1  0  0  0  0  0999 V2000
   -4.3363   -1.5348    0.0000 C   0  0  0  0  0  0  0  0  0  0  0  0
   -5.2875   -1.6348    0.0000 N   0  0  0  0  0  0  0  0  0  0  0  0
   -3.3850   -1.4348    0.0000 C   0  0  1  0  0  0  0  0  0  0  0  0
   -4.1631   -3.1824    0.0000 C   0  0  0  0  0  0  0  0  0  0  0  0
   -5.1144   -3.2824    0.0000 C   0  0  0  0  0  0  0  0  0  0  0  0
   -5.6766   -2.5086    0.0000 C   0  0  0  0  0  0  0  0  0  0  0  0
   -6.6279   -2.6086    0.0000 C   0  0  0  0  0  0  0  0  0  0  0  0
   -7.0169   -3.4824    0.0000 C   0  0  0  0  0  0  0  0  0  0  0  0
   -6.4547   -4.2562    0.0000 C   0  0  0  0  0  0  0  0  0  0  0  0
   -5.5034   -4.1562    0.0000 C   0  0  0  0  0  0  0  0  0  0  0  0
   -3.3850   -0.4783    0.0000 N   0  0  0  0  0  0  0  0  0  0  0  0
   -2.4753   -0.1827    0.0000 C   0  0  0  0  0  0  0  0  0  0  0  0
   -1.9130   -0.9565    0.0000 N   0  0  0  0  0  0  0  0  0  0  0  0
    0.0000   -0.9565    0.0000 P   0  0  0  0  0  0  0  0  0  0  0  0
    0.0000   -1.9130    0.0000 O   0  0  0  0  0  0  0  0  0  0  0  0
    0.9565   -0.9565    0.0000 C   0  0  0  0  0  0  0  0  0  0  0  0
    1.4348   -0.1281    0.0000 C   0  0  0  0  0  0  0  0  0  0  0  0
    2.3913   -0.1281    0.0000 C   0  0  0  0  0  0  0  0  0  0  0  0
    2.8696   -0.9565    0.0000 C   0  0  0  0  0  0  0  0  0  0  0  0
    2.3913   -1.7849    0.0000 C   0  0  0  0  0  0  0  0  0  0  0  0
    1.4348   -1.7849    0.0000 C   0  0  0  0  0  0  0  0  0  0  0  0
    0.0000    0.0000    0.0000 C   0  0  0  0  0  0  0  0  0  0  0  0
   -0.8284    0.4783    0.0000 C   0  0  0  0  0  0  0  0  0  0  0  0
   -0.8284    1.4348    0.0000 C   0  0  0  0  0  0  0  0  0  0  0  0
    0.0000    1.9130    0.0000 C   0  0  0  0  0  0  0  0  0  0  0  0
    0.8284    1.4348    0.0000 C   0  0  0  0  0  0  0  0  0  0  0  0
    0.8284    0.4783    0.0000 C   0  0  0  0  0  0  0  0  0  0  0  0
   -2.4753   -1.7304    0.0000 C   0  0  1  0  0  0  0  0  0  0  0  0
   -2.6741   -2.6660    0.0000 C   0  0  0  0  0  0  0  0  0  0  0  0
   -1.7644   -2.3704    0.0000 C   0  0  0  0  0  0  0  0  0  0  0  0
   -0.8547   -2.0748    0.0000 C   0  0  0  0  0  0  0  0  0  0  0  0
   -0.1439   -2.7149    0.0000 C   0  0  0  0  0  0  0  0  0  0  0  0
   -0.3428   -3.6505    0.0000 C   0  0  0  0  0  0  0  0  0  0  0  0
    0.3681   -4.2905    0.0000 C   0  0  0  0  0  0  0  0  0  0  0  0
    0.1692   -5.2261    0.0000 C   0  0  0  0  0  0  0  0  0  0  0  0
   -0.7405   -5.5217    0.0000 C   0  0  0  0  0  0  0  0  0  0  0  0
   -1.4513   -4.8817    0.0000 C   0  0  0  0  0  0  0  0  0  0  0  0
   -1.2525   -3.9461    0.0000 C   0  0  0  0  0  0  0  0  0  0  0  0
   -1.9633   -3.3060    0.0000 C   0  0  0  0  0  0  0  0  0  0  0  0
  1  2  3  0  0  0  0
  3  1  1  1  0  0  0
  3 28  1  0  0  0  0
  3  4  1  0  0  0  0
  3 11  1  0  0  0  0
  4  5  1  0  0  0  0
  5 10  2  0  0  0  0
  5  6  1  0  0  0  0
  6  7  2  0  0  0  0
  7  8  1  0  0  0  0
  8  9  2  0  0  0  0
  9 10  1  0  0  0  0
 11 12  2  0  0  0  0
 12 13  1  0  0  0  0
 13 14  1  0  0  0  0
 13 28  1  0  0  0  0
 14 15  2  0  0  0  0
 14 16  1  0  0  0  0
 14 22  1  0  0  0  0
 16 21  2  0  0  0  0
 16 17  1  0  0  0  0
 17 18  2  0  0  0  0
 18 19  1  0  0  0  0
 19 20  2  0  0  0  0
 20 21  1  0  0  0  0
 22 27  2  0  0  0  0
 22 23  1  0  0  0  0
 23 24  2  0  0  0  0
 24 25  1  0  0  0  0
 25 26  2  0  0  0  0
 26 27  1  0  0  0  0
 28 29  1  1  0  0  0
 28 30  1  0  0  0  0
 30 39  2  0  0  0  0
 30 31  1  0  0  0  0
 31 32  2  0  0  0  0
 32 33  1  0  0  0  0
 33 38  2  0  0  0  0
 33 34  1  0  0  0  0
 34 35  2  0  0  0  0
 35 36  1  0  0  0  0
 36 37  2  0  0  0  0
 37 38  1  0  0  0  0
 38 39  1  0  0  0  0
M  END
> <NMREDATA_VERSION>
1.1

> <NMREDATA_LEVEL>
0

> <NMREDATA_SOLVENT>
CDCl3

> <NMREDATA_FORMULA>
C34H28N3OP

> <NMREDATA_SMILES>
N#C[C@]1(N=CN([C@]1(C)c1ccc2c(c1)cccc2)P(=O)(c1ccccc1)c1ccccc1)Cc1ccccc1

> <NMREDATA_ASSIGNMENT>
P14, 22.30, 14

> <NMREDATA_1D_31P>
Larmor=121
22.30, L=P14

$$$$
