
 OpenBabel06112616482D

 47 52  0  0  0  0  0  0  0  0999 V2000
    7.5191   -1.0499    0.0000 C   0  0  0  0  0  0  0  0  0  0  0  0
    8.2232   -0.4158    0.0000 F   0  0  0  0  0  0  0  0  0  0  0  0
    7.3220   -0.1231    0.0000 F   0  0  0  0  0  0  0  0  0  0  0  0
    8.1533   -1.7540    0.0000 F   0  0  0  0  0  0  0  0  0  0  0  0
    6.5923   -1.2470    0.0000 C   0  0  0  0  0  0  0  0  0  0  0  0
    6.2996   -2.1482    0.0000 C   0  0  0  0  0  0  0  0  0  0  0  0
    5.3728   -2.3454    0.0000 C   0  0  0  0  0  0  0  0  0  0  0  0
    4.7387   -1.6413    0.0000 C   0  0  0  0  0  0  0  0  0  0  0  0
    3.7911   -1.6414    0.0000 C   0  0  0  0  0  0  0  0  0  0  0  0
    3.3172   -0.8209    0.0000 C   0  0  0  0  0  0  0  0  0  0  0  0
    3.7909    0.0002    0.0000 C   0  0  0  0  0  0  0  0  0  0  0  0
    3.3170    0.8208    0.0000 C   0  0  0  0  0  0  0  0  0  0  0  0
    4.2643    2.4621    0.0000 C   0  0  0  0  0  0  0  0  0  0  0  0
    3.7072    3.2286    0.0000 O   0  0  0  0  0  0  0  0  0  0  0  0
    5.2066    2.5613    0.0000 O   0  0  0  0  0  0  0  0  0  0  0  0
    5.7637    1.7948    0.0000 C   0  0  0  0  0  0  0  0  0  0  0  0
    2.8430    1.6413    0.0000 C   0  0  0  0  0  0  0  0  0  0  0  0
    3.3998    2.4080    0.0000 O   0  0  0  0  0  0  0  0  0  0  0  0
    1.9007    1.7401    0.0000 O   0  0  0  0  0  0  0  0  0  0  0  0
    1.3438    0.9735    0.0000 C   0  0  0  0  0  0  0  0  0  0  0  0
    2.3688    0.8206    0.0000 C   0  0  0  0  0  0  0  0  0  0  0  0
    1.8951    0.0000    0.0000 C   0  0  0  0  0  0  0  0  0  0  0  0
    0.0000    0.0000    0.0000 P   0  0  0  0  0  0  0  0  0  0  0  0
   -0.3854    0.8656    0.0000 O   0  0  0  0  0  0  0  0  0  0  0  0
   -0.8656   -0.3854    0.0000 C   0  0  0  0  0  0  0  0  0  0  0  0
   -0.9647   -1.3278    0.0000 C   0  0  0  0  0  0  0  0  0  0  0  0
   -1.8303   -1.7132    0.0000 C   0  0  0  0  0  0  0  0  0  0  0  0
   -2.5969   -1.1562    0.0000 C   0  0  0  0  0  0  0  0  0  0  0  0
   -2.4979   -0.2139    0.0000 C   0  0  0  0  0  0  0  0  0  0  0  0
   -1.6322    0.1716    0.0000 C   0  0  0  0  0  0  0  0  0  0  0  0
    0.3854   -0.8656    0.0000 C   0  0  0  0  0  0  0  0  0  0  0  0
   -0.1716   -1.6322    0.0000 C   0  0  0  0  0  0  0  0  0  0  0  0
    0.2139   -2.4979    0.0000 C   0  0  0  0  0  0  0  0  0  0  0  0
    1.1562   -2.5969    0.0000 C   0  0  0  0  0  0  0  0  0  0  0  0
    1.7132   -1.8303    0.0000 C   0  0  0  0  0  0  0  0  0  0  0  0
    0.6988   -1.8303    0.0000 C   0  0  0  0  0  0  0  0  0  0  0  0
    2.3690   -0.8210    0.0000 C   0  0  0  0  0  0  0  0  0  0  0  0
    2.3693   -2.4627    0.0000 C   0  0  0  0  0  0  0  0  0  0  0  0
    1.8955   -3.2838    0.0000 C   0  0  0  0  0  0  0  0  0  0  0  0
    2.3695   -4.1043    0.0000 C   0  0  0  0  0  0  0  0  0  0  0  0
    3.3176   -4.1042    0.0000 C   0  0  0  0  0  0  0  0  0  0  0  0
    3.7914   -4.9248    0.0000 O   0  0  0  0  0  0  0  0  0  0  0  0
    4.7389   -4.9248    0.0000 C   0  0  0  0  0  0  0  0  0  0  0  0
    3.7913   -3.2835    0.0000 C   0  0  0  0  0  0  0  0  0  0  0  0
    3.3174   -2.4625    0.0000 C   0  0  0  0  0  0  0  0  0  0  0  0
    5.0314   -0.7401    0.0000 C   0  0  0  0  0  0  0  0  0  0  0  0
    5.9582   -0.5429    0.0000 C   0  0  0  0  0  0  0  0  0  0  0  0
  1  2  1  0  0  0  0
  1  3  1  0  0  0  0
  1  4  1  0  0  0  0
  1  5  1  0  0  0  0
  5 47  2  0  0  0  0
  5  6  1  0  0  0  0
  6  7  2  0  0  0  0
  7  8  1  0  0  0  0
  8  9  1  0  0  0  0
  8 46  2  0  0  0  0
  9 45  1  0  0  0  0
  9 10  2  0  0  0  0
 10 37  1  0  0  0  0
 10 11  1  0  0  0  0
 11 12  1  0  0  0  0
 12 13  1  0  0  0  0
 12 17  1  0  0  0  0
 12 21  1  0  0  0  0
 13 14  2  0  0  0  0
 13 15  1  0  0  0  0
 15 16  1  0  0  0  0
 17 18  2  0  0  0  0
 17 19  1  0  0  0  0
 19 20  1  0  0  0  0
 21 22  1  0  0  0  0
 22 23  1  0  0  0  0
 22 37  2  0  0  0  0
 23 24  2  0  0  0  0
 23 25  1  0  0  0  0
 23 31  1  0  0  0  0
 25 30  2  0  0  0  0
 25 26  1  0  0  0  0
 26 27  2  0  0  0  0
 27 28  1  0  0  0  0
 28 29  2  0  0  0  0
 29 30  1  0  0  0  0
 31 36  2  0  0  0  0
 31 32  1  0  0  0  0
 32 33  2  0  0  0  0
 33 34  1  0  0  0  0
 34 35  2  0  0  0  0
 35 36  1  0  0  0  0
 37 38  1  0  0  0  0
 38 45  2  0  0  0  0
 38 39  1  0  0  0  0
 39 40  2  0  0  0  0
 40 41  1  0  0  0  0
 41 42  1  0  0  0  0
 41 44  2  0  0  0  0
 42 43  1  0  0  0  0
 44 45  1  0  0  0  0
 46 47  1  0  0  0  0
M  END
> <NMREDATA_VERSION>
1.1

> <NMREDATA_LEVEL>
0

> <NMREDATA_SOLVENT>
CDCl3

> <NMREDATA_FORMULA>
C37H30F3O6P

> <NMREDATA_SMILES>
COc1ccc2c(c1)C(=C1C2=C(CC(C1)(C(=O)OC)C(=O)OC)P(=O)(c1ccccc1)c1ccccc1)c1ccc(cc1)C(F)(F)F

> <NMREDATA_ASSIGNMENT>
P23, 29.26, 23

> <NMREDATA_1D_31P>
Larmor=162
29.26, L=P23

$$$$
