
 OpenBabel06112616422D

 36 40  0  0  1  0  0  0  0  0999 V2000
    1.6898   -1.9512    0.0000 C   0  0  0  0  0  0  0  0  0  0  0  0
    0.8449   -2.4390    0.0000 C   0  0  0  0  0  0  0  0  0  0  0  0
    0.0000   -1.9512    0.0000 O   0  0  0  0  0  0  0  0  0  0  0  0
    0.0000   -0.9756    0.0000 P   0  0  0  0  0  0  0  0  0  0  0  0
    0.9756   -0.9756    0.0000 O   0  0  0  0  0  0  0  0  0  0  0  0
    1.4634   -0.1307    0.0000 C   0  0  0  0  0  0  0  0  0  0  0  0
    2.4390   -0.1307    0.0000 C   0  0  0  0  0  0  0  0  0  0  0  0
   -1.9512   -0.9756    0.0000 C   0  0  0  0  0  0  0  0  0  0  0  0
   -2.4390   -0.1307    0.0000 C   0  0  3  0  0  0  0  0  0  0  0  0
   -2.9268   -0.9756    0.0000 C   0  0  0  0  0  0  0  0  0  0  0  0
   -3.9024   -0.9756    0.0000 C   0  0  0  0  0  0  0  0  0  0  0  0
   -4.3902   -1.8205    0.0000 C   0  0  0  0  0  0  0  0  0  0  0  0
   -3.9024   -2.6654    0.0000 C   0  0  0  0  0  0  0  0  0  0  0  0
   -2.9268   -2.6654    0.0000 C   0  0  0  0  0  0  0  0  0  0  0  0
   -2.4390   -1.8205    0.0000 C   0  0  0  0  0  0  0  0  0  0  0  0
   -1.6497    0.4427    0.0000 C   0  0  0  0  0  0  0  0  0  0  0  0
   -1.9512    1.3706    0.0000 C   0  0  0  0  0  0  0  0  0  0  0  0
   -1.2984    2.0956    0.0000 C   0  0  0  0  0  0  0  0  0  0  0  0
   -0.3441    1.8928    0.0000 C   0  0  0  0  0  0  0  0  0  0  0  0
   -0.0426    0.9649    0.0000 C   0  0  0  0  0  0  0  0  0  0  0  0
   -0.6954    0.2399    0.0000 C   0  0  0  0  0  0  0  0  0  0  0  0
    0.3087    2.6178    0.0000 C   0  0  0  0  0  0  0  0  0  0  0  0
    0.0072    3.5457    0.0000 C   0  0  0  0  0  0  0  0  0  0  0  0
   -0.9471    3.7485    0.0000 C   0  0  0  0  0  0  0  0  0  0  0  0
   -1.5999    3.0235    0.0000 C   0  0  0  0  0  0  0  0  0  0  0  0
   -2.9268    1.3706    0.0000 N   0  0  0  0  0  0  0  0  0  0  0  0
   -3.5003    2.1599    0.0000 C   0  0  0  0  0  0  0  0  0  0  0  0
   -4.4705    2.0579    0.0000 C   0  0  0  0  0  0  0  0  0  0  0  0
   -5.0440    2.8472    0.0000 C   0  0  0  0  0  0  0  0  0  0  0  0
   -6.0143    2.7452    0.0000 C   0  0  0  0  0  0  0  0  0  0  0  0
   -6.4111    1.8540    0.0000 C   0  0  0  0  0  0  0  0  0  0  0  0
   -5.8376    1.0647    0.0000 C   0  0  0  0  0  0  0  0  0  0  0  0
   -4.8674    1.1666    0.0000 C   0  0  0  0  0  0  0  0  0  0  0  0
   -3.2283    0.4427    0.0000 C   0  0  0  0  0  0  0  0  0  0  0  0
   -4.1562    0.1413    0.0000 O   0  0  0  0  0  0  0  0  0  0  0  0
    0.0000    0.0000    0.0000 O   0  0  0  0  0  0  0  0  0  0  0  0
  1  2  1  0  0  0  0
  2  3  1  0  0  0  0
  3  4  1  0  0  0  0
  4  5  1  0  0  0  0
  4  8  1  0  0  0  0
  4 36  2  0  0  0  0
  5  6  1  0  0  0  0
  6  7  1  0  0  0  0
  8  9  1  0  0  0  0
  9 34  1  0  0  0  0
  9 10  1  0  0  0  0
  9 16  1  0  0  0  0
 10 15  2  0  0  0  0
 10 11  1  0  0  0  0
 11 12  2  0  0  0  0
 12 13  1  0  0  0  0
 13 14  2  0  0  0  0
 14 15  1  0  0  0  0
 16 21  2  0  0  0  0
 16 17  1  0  0  0  0
 17 18  2  0  0  0  0
 17 26  1  0  0  0  0
 18 25  1  0  0  0  0
 18 19  1  0  0  0  0
 19 20  2  0  0  0  0
 19 22  1  0  0  0  0
 20 21  1  0  0  0  0
 22 23  2  0  0  0  0
 23 24  1  0  0  0  0
 24 25  2  0  0  0  0
 26 27  1  0  0  0  0
 26 34  1  0  0  0  0
 27 28  1  0  0  0  0
 28 33  2  0  0  0  0
 28 29  1  0  0  0  0
 29 30  2  0  0  0  0
 30 31  1  0  0  0  0
 31 32  2  0  0  0  0
 32 33  1  0  0  0  0
 34 35  2  0  0  0  0
M  END
> <NMREDATA_VERSION>
1.1

> <NMREDATA_LEVEL>
0

> <NMREDATA_SOLVENT>
CDCl3

> <NMREDATA_FORMULA>
C30H30NO4P

> <NMREDATA_SMILES>
CCOP(=O)(CC1(c2ccccc2)C(=O)N(c2c1ccc1c2cccc1)Cc1ccccc1)OCC

> <NMREDATA_ASSIGNMENT>
P4, 25.38, 4

> <NMREDATA_1D_31P>
Larmor=162
25.38, L=P4

$$$$
