
 OpenBabel06112616432D

 38 40  0  0  0  0  0  0  0  0999 V2000
   -0.4878   -3.5103    0.0000 C    0  0  0  0  0  0  0  0  0  0  0  0
   -0.9756   -2.6654    0.0000 C    0  0  0  0  0  0  0  0  0  0  0  0
   -1.4634   -1.8205    0.0000 C    0  0  0  0  0  0  0  0  0  0  0  0
   -2.4390   -1.8205    0.0000 C    0  0  0  0  0  0  0  0  0  0  0  0
   -2.9268   -0.9756    0.0000 C    0  0  0  0  0  0  0  0  0  0  0  0
   -3.9024   -0.9756    0.0000 Cl   0  0  0  0  0  0  0  0  0  0  0  0
   -2.4390   -0.1307    0.0000 C    0  0  0  0  0  0  0  0  0  0  0  0
   -1.4634   -0.1307    0.0000 C    0  0  0  0  0  0  0  0  0  0  0  0
   -0.9756   -0.9756    0.0000 C    0  0  0  0  0  0  0  0  0  0  0  0
    0.0000   -0.9756    0.0000 P    0  0  1  0  0  0  0  0  0  0  0  0
    0.0000   -1.9512    0.0000 O    0  0  0  0  0  0  0  0  0  0  0  0
    1.9512   -0.9756    0.0000 C    0  0  0  0  0  0  0  0  0  0  0  0
    2.4390   -0.1307    0.0000 C    0  0  0  0  0  0  0  0  0  0  0  0
    3.4146   -0.1307    0.0000 C    0  0  0  0  0  0  0  0  0  0  0  0
    3.9024   -0.9756    0.0000 C    0  0  0  0  0  0  0  0  0  0  0  0
    4.8780   -0.9756    0.0000 Cl   0  0  0  0  0  0  0  0  0  0  0  0
    3.4146   -1.8205    0.0000 C    0  0  0  0  0  0  0  0  0  0  0  0
    2.4390   -1.8205    0.0000 C    0  0  0  0  0  0  0  0  0  0  0  0
    0.0000    0.0000    0.0000 N    0  0  0  0  0  0  0  0  0  0  0  0
   -0.8449    0.4878    0.0000 C    0  0  0  0  0  0  0  0  0  0  0  0
   -0.8449    1.4634    0.0000 C    0  0  0  0  0  0  0  0  0  0  0  0
    0.8449    0.4878    0.0000 C    0  0  0  0  0  0  0  0  0  0  0  0
    1.6898    0.0000    0.0000 N    0  0  0  0  0  0  0  0  0  0  0  0
    2.5347    0.4878    0.0000 C    0  0  0  0  0  0  0  0  0  0  0  0
    2.5347    1.4634    0.0000 C    0  0  0  0  0  0  0  0  0  0  0  0
    1.6898    1.9512    0.0000 C    0  0  0  0  0  0  0  0  0  0  0  0
    0.8449    1.4634    0.0000 C    0  0  0  0  0  0  0  0  0  0  0  0
    0.0000    1.9512    0.0000 C    0  0  0  0  0  0  0  0  0  0  0  0
    0.0000   -4.3552    0.0000 Si   0  0  0  0  0  0  0  0  0  0  0  0
   -0.8449   -4.8430    0.0000 C    0  0  0  0  0  0  0  0  0  0  0  0
   -1.6898   -4.3552    0.0000 C    0  0  0  0  0  0  0  0  0  0  0  0
   -0.8449   -5.8186    0.0000 C    0  0  0  0  0  0  0  0  0  0  0  0
    0.4878   -5.2001    0.0000 C    0  0  0  0  0  0  0  0  0  0  0  0
    0.0000   -6.0450    0.0000 C    0  0  0  0  0  0  0  0  0  0  0  0
    1.4634   -5.2001    0.0000 C    0  0  0  0  0  0  0  0  0  0  0  0
    0.8449   -3.8674    0.0000 C    0  0  0  0  0  0  0  0  0  0  0  0
    1.6898   -4.3552    0.0000 C    0  0  0  0  0  0  0  0  0  0  0  0
    0.8449   -2.8918    0.0000 C    0  0  0  0  0  0  0  0  0  0  0  0
  1  2  3  0  0  0  0
  1 29  1  0  0  0  0
  2  3  1  0  0  0  0
  3  9  2  0  0  0  0
  3  4  1  0  0  0  0
  4  5  2  0  0  0  0
  5  6  1  0  0  0  0
  5  7  1  0  0  0  0
  7  8  2  0  0  0  0
  8  9  1  0  0  0  0
  9 10  1  0  0  0  0
 10 11  2  1  0  0  0
 10 12  1  0  0  0  0
 10 19  1  0  0  0  0
 12 18  2  0  0  0  0
 12 13  1  0  0  0  0
 13 14  2  0  0  0  0
 14 15  1  0  0  0  0
 15 16  1  0  0  0  0
 15 17  2  0  0  0  0
 17 18  1  0  0  0  0
 19 20  1  0  0  0  0
 19 22  1  0  0  0  0
 20 21  1  0  0  0  0
 22 27  2  0  0  0  0
 22 23  1  0  0  0  0
 23 24  2  0  0  0  0
 24 25  1  0  0  0  0
 25 26  2  0  0  0  0
 26 27  1  0  0  0  0
 27 28  1  0  0  0  0
 29 30  1  0  0  0  0
 29 33  1  0  0  0  0
 29 36  1  0  0  0  0
 30 31  1  0  0  0  0
 30 32  1  0  0  0  0
 33 34  1  0  0  0  0
 33 35  1  0  0  0  0
 36 37  1  0  0  0  0
 36 38  1  0  0  0  0
M  END
> <NMREDATA_VERSION>
1.1

> <NMREDATA_LEVEL>
0

> <NMREDATA_SOLVENT>
CDCl3

> <NMREDATA_FORMULA>
C31H39Cl2N2OPSi

> <NMREDATA_SMILES>
CCN([P@@](=O)(c1ccc(cc1C#C[Si](C(C)C)(C(C)C)C(C)C)Cl)c1ccc(cc1)Cl)c1ncccc1C

> <NMREDATA_ASSIGNMENT>
P10, 27.03, 10

> <NMREDATA_1D_31P>
Larmor=162
27.03, L=P10

$$$$
