
 OpenBabel06112616492D

 29 31  0  0  1  0  0  0  0  0999 V2000
    0.9687   -0.9687    0.0000 C   0  0  0  0  0  0  0  0  0  0  0  0
    0.0000   -0.9687    0.0000 S   0  0  0  0  0  0  0  0  0  0  0  0
    0.0000   -1.9375    0.0000 O   0  0  0  0  0  0  0  0  0  0  0  0
   -0.9687   -0.9688    0.0000 O   0  0  0  0  0  0  0  0  0  0  0  0
    0.0000    0.0000    0.0000 C   0  0  3  0  0  0  0  0  0  0  0  0
    0.8390    0.4844    0.0000 C   0  0  0  0  0  0  0  0  0  0  0  0
    0.8390    1.4531    0.0000 C   0  0  0  0  0  0  0  0  0  0  0  0
    1.3233    2.2921    0.0000 C   0  0  0  0  0  0  0  0  0  0  0  0
    1.8077    1.4531    0.0000 C   0  0  0  0  0  0  0  0  0  0  0  0
    0.0000    1.9375    0.0000 C   0  0  0  0  0  0  0  0  0  0  0  0
   -1.6779    0.9687    0.0000 P   0  0  0  0  0  0  0  0  0  0  0  0
   -1.1935    1.8077    0.0000 O   0  0  0  0  0  0  0  0  0  0  0  0
   -2.5169    1.4531    0.0000 C   0  0  0  0  0  0  0  0  0  0  0  0
   -3.3558    0.9687    0.0000 C   0  0  0  0  0  0  0  0  0  0  0  0
   -4.1948    1.4531    0.0000 C   0  0  0  0  0  0  0  0  0  0  0  0
   -4.1948    2.4219    0.0000 C   0  0  0  0  0  0  0  0  0  0  0  0
   -3.3558    2.9062    0.0000 C   0  0  0  0  0  0  0  0  0  0  0  0
   -2.5169    2.4219    0.0000 C   0  0  0  0  0  0  0  0  0  0  0  0
   -2.1623    0.1298    0.0000 C   0  0  0  0  0  0  0  0  0  0  0  0
   -1.6779   -0.7092    0.0000 C   0  0  0  0  0  0  0  0  0  0  0  0
   -2.1623   -1.5481    0.0000 C   0  0  0  0  0  0  0  0  0  0  0  0
   -3.1310   -1.5481    0.0000 C   0  0  0  0  0  0  0  0  0  0  0  0
   -3.6154   -0.7092    0.0000 C   0  0  0  0  0  0  0  0  0  0  0  0
   -3.1310    0.1298    0.0000 C   0  0  0  0  0  0  0  0  0  0  0  0
    1.4531   -0.1298    0.0000 C   0  0  0  0  0  0  0  0  0  0  0  0
    2.4219   -0.1298    0.0000 C   0  0  0  0  0  0  0  0  0  0  0  0
    2.9062   -0.9687    0.0000 C   0  0  0  0  0  0  0  0  0  0  0  0
    2.4219   -1.8077    0.0000 C   0  0  0  0  0  0  0  0  0  0  0  0
    1.4531   -1.8077    0.0000 C   0  0  0  0  0  0  0  0  0  0  0  0
  1 29  2  0  0  0  0
  1  2  1  0  0  0  0
  1 25  1  0  0  0  0
  2  3  2  0  0  0  0
  2  4  2  0  0  0  0
  2  5  1  0  0  0  0
  5  6  1  0  0  0  0
  5 11  1  0  0  0  0
  6  7  1  0  0  0  0
  7  8  1  0  0  0  0
  7  9  1  0  0  0  0
  7 10  1  0  0  0  0
 11 12  2  0  0  0  0
 11 13  1  0  0  0  0
 11 19  1  0  0  0  0
 13 18  2  0  0  0  0
 13 14  1  0  0  0  0
 14 15  2  0  0  0  0
 15 16  1  0  0  0  0
 16 17  2  0  0  0  0
 17 18  1  0  0  0  0
 19 24  2  0  0  0  0
 19 20  1  0  0  0  0
 20 21  2  0  0  0  0
 21 22  1  0  0  0  0
 22 23  2  0  0  0  0
 23 24  1  0  0  0  0
 25 26  2  0  0  0  0
 26 27  1  0  0  0  0
 27 28  2  0  0  0  0
 28 29  1  0  0  0  0
M  END
> <NMREDATA_VERSION>
1.1

> <NMREDATA_LEVEL>
0

> <NMREDATA_SOLVENT>
CD2Cl2

> <NMREDATA_FORMULA>
C24H27O3PS

> <NMREDATA_SMILES>
CC(CC(P(=O)(c1ccccc1)c1ccccc1)S(=O)(=O)c1ccccc1)(C)C

> <NMREDATA_ASSIGNMENT>
P11, 27.40, 11

> <NMREDATA_1D_31P>
Larmor=202
27.40, L=P11

$$$$
