
 OpenBabel06112616472D

 44 50  0  0  0  0  0  0  0  0999 V2000
   -3.5561    2.2537    0.0000 C   0  0  0  0  0  0  0  0  0  0  0  0
   -2.5780    2.0458    0.0000 O   0  0  0  0  0  0  0  0  0  0  0  0
   -2.2690    1.0947    0.0000 C   0  0  0  0  0  0  0  0  0  0  0  0
   -2.9381    0.3516    0.0000 C   0  0  0  0  0  0  0  0  0  0  0  0
   -2.6291   -0.5995    0.0000 C   0  0  0  0  0  0  0  0  0  0  0  0
   -1.6509   -0.8074    0.0000 C   0  0  0  0  0  0  0  0  0  0  0  0
   -1.3419   -1.7584    0.0000 P   0  0  0  0  0  0  0  0  0  0  0  0
   -0.3638   -1.9664    0.0000 C   0  0  0  0  0  0  0  0  0  0  0  0
   -0.0547   -2.9174    0.0000 C   0  0  0  0  0  0  0  0  0  0  0  0
    0.9234   -3.1253    0.0000 C   0  0  0  0  0  0  0  0  0  0  0  0
    1.5925   -2.3822    0.0000 C   0  0  0  0  0  0  0  0  0  0  0  0
    1.2835   -1.4311    0.0000 C   0  0  0  0  0  0  0  0  0  0  0  0
    0.3054   -1.2232    0.0000 C   0  0  0  0  0  0  0  0  0  0  0  0
   -2.0110   -2.5016    0.0000 C   0  0  0  0  0  0  0  0  0  0  0  0
   -2.9892   -2.2937    0.0000 C   0  0  0  0  0  0  0  0  0  0  0  0
   -3.6583   -3.0368    0.0000 C   0  0  0  0  0  0  0  0  0  0  0  0
   -3.3493   -3.9879    0.0000 C   0  0  0  0  0  0  0  0  0  0  0  0
   -2.3711   -4.1958    0.0000 C   0  0  0  0  0  0  0  0  0  0  0  0
   -1.7020   -3.4526    0.0000 C   0  0  0  0  0  0  0  0  0  0  0  0
   -0.9818   -0.0642    0.0000 C   0  0  0  0  0  0  0  0  0  0  0  0
   -0.0036   -0.2722    0.0000 N   0  0  0  0  0  0  0  0  0  0  0  0
    0.4031   -1.1857    0.0000 C   0  0  0  0  0  0  0  0  0  0  0  0
   -0.0036   -2.0992    0.0000 C   0  0  0  0  0  0  0  0  0  0  0  0
    0.5841   -2.9083    0.0000 C   0  0  0  0  0  0  0  0  0  0  0  0
    1.5787   -2.8037    0.0000 C   0  0  0  0  0  0  0  0  0  0  0  0
    1.9854   -1.8902    0.0000 C   0  0  0  0  0  0  0  0  0  0  0  0
    1.3976   -1.0812    0.0000 C   0  0  0  0  0  0  0  0  0  0  0  0
    1.6055   -0.1030    0.0000 C   0  0  0  0  0  0  0  0  0  0  0  0
    2.4716    0.3970    0.0000 C   0  0  0  0  0  0  0  0  0  0  0  0
    2.4716    1.3970    0.0000 C   0  0  0  0  0  0  0  0  0  0  0  0
    1.6055    1.8970    0.0000 C   0  0  0  0  0  0  0  0  0  0  0  0
    0.8660   -0.5000    0.0000 C   0  0  0  0  0  0  0  0  0  0  0  0
    0.8660   -1.5000    0.0000 C   0  0  0  0  0  0  0  0  0  0  0  0
    1.7321   -2.0000    0.0000 O   0  0  0  0  0  0  0  0  0  0  0  0
    1.7321   -3.0000    0.0000 C   0  0  0  0  0  0  0  0  0  0  0  0
    0.0000   -2.0000    0.0000 C   0  0  0  0  0  0  0  0  0  0  0  0
   -0.8660   -1.5000    0.0000 C   0  0  0  0  0  0  0  0  0  0  0  0
   -0.8660   -0.5000    0.0000 C   0  0  0  0  0  0  0  0  0  0  0  0
    0.0000    0.0000    0.0000 C   0  0  0  0  0  0  0  0  0  0  0  0
    0.0000    1.0000    0.0000 O   0  0  0  0  0  0  0  0  0  0  0  0
   -0.8660    1.5000    0.0000 C   0  0  0  0  0  0  0  0  0  0  0  0
    0.7395    1.3970    0.0000 C   0  0  0  0  0  0  0  0  0  0  0  0
    0.7395    0.3970    0.0000 C   0  0  0  0  0  0  0  0  0  0  0  0
   -1.2908    0.8868    0.0000 C   0  0  0  0  0  0  0  0  0  0  0  0
  1  2  1  0  0  0  0
  2  3  1  0  0  0  0
  3 44  2  0  0  0  0
  3  4  1  0  0  0  0
  4  5  2  0  0  0  0
  5  6  1  0  0  0  0
  6  7  1  0  0  0  0
  6 20  2  0  0  0  0
  7  8  1  0  0  0  0
  7 14  1  0  0  0  0
  8 13  2  0  0  0  0
  8  9  1  0  0  0  0
  9 10  2  0  0  0  0
 10 11  1  0  0  0  0
 11 12  2  0  0  0  0
 12 13  1  0  0  0  0
 14 19  2  0  0  0  0
 14 15  1  0  0  0  0
 15 16  2  0  0  0  0
 16 17  1  0  0  0  0
 17 18  2  0  0  0  0
 18 19  1  0  0  0  0
 20 21  1  0  0  0  0
 20 44  1  0  0  0  0
 21 43  1  0  0  0  0
 21 22  1  0  0  0  0
 22 27  2  0  0  0  0
 22 23  1  0  0  0  0
 23 24  2  0  0  0  0
 24 25  1  0  0  0  0
 25 26  2  0  0  0  0
 26 27  1  0  0  0  0
 27 28  1  0  0  0  0
 28 43  2  0  0  0  0
 28 29  1  0  0  0  0
 29 30  2  0  0  0  0
 30 31  1  0  0  0  0
 31 32  1  0  0  0  0
 31 42  2  0  0  0  0
 32 39  2  0  0  0  0
 32 33  1  0  0  0  0
 33 34  1  0  0  0  0
 33 36  2  0  0  0  0
 34 35  1  0  0  0  0
 36 37  1  0  0  0  0
 37 38  2  0  0  0  0
 38 39  1  0  0  0  0
 39 40  1  0  0  0  0
 40 41  1  0  0  0  0
 42 43  1  0  0  0  0
M  END
> <NMREDATA_VERSION>
1.1

> <NMREDATA_LEVEL>
0

> <NMREDATA_SOLVENT>
CDCl3

> <NMREDATA_FORMULA>
C39H32NO3P

> <NMREDATA_SMILES>
COc1ccc(c(c1)n1c2ccccc2c2c1cc(cc2)c1c(OC)cccc1OC)P(c1ccccc1)c1ccccc1

> <NMREDATA_ASSIGNMENT>
P7, -19.47, 7

> <NMREDATA_1D_31P>
Larmor=162
-19.47, L=P7

$$$$
