
 OpenBabel06112616432D

 34 37  0  0  1  0  0  0  0  0999 V2000
   -7.9690    0.4262    0.0000 N   0  0  0  0  0  0  0  0  0  0  0  0
   -7.3812   -0.3828    0.0000 C   0  0  0  0  0  0  0  0  0  0  0  0
   -7.7880   -1.2963    0.0000 N   0  0  0  0  0  0  0  0  0  0  0  0
   -7.2002   -2.1053    0.0000 C   0  0  0  0  0  0  0  0  0  0  0  0
   -6.2057   -2.0008    0.0000 N   0  0  0  0  0  0  0  0  0  0  0  0
   -5.7989   -1.0873    0.0000 C   0  0  0  0  0  0  0  0  0  0  0  0
   -6.3867   -0.2782    0.0000 C   0  0  0  0  0  0  0  0  0  0  0  0
   -5.7989    0.5308    0.0000 N   0  0  0  0  0  0  0  0  0  0  0  0
   -4.8479    0.2218    0.0000 C   0  0  0  0  0  0  0  0  0  0  0  0
   -4.8479   -0.7782    0.0000 N   0  0  0  0  0  0  0  0  0  0  0  0
   -4.0388   -1.3660    0.0000 C   0  0  2  0  0  0  0  0  0  0  0  0
   -3.0878   -1.0570    0.0000 O   0  0  0  0  0  0  0  0  0  0  0  0
   -2.5000   -1.8660    0.0000 C   0  0  2  0  0  0  0  0  0  0  0  0
   -1.5000   -1.8660    0.0000 C   0  0  0  0  0  0  0  0  0  0  0  0
   -1.0000   -1.0000    0.0000 O   0  0  0  0  0  0  0  0  0  0  0  0
    0.0000   -1.0000    0.0000 P   0  0  3  0  0  0  0  0  0  0  0  0
    0.0000   -2.0000    0.0000 O   0  0  0  0  0  0  0  0  0  0  0  0
    1.0000   -1.0000    0.0000 O   0  5  0  0  0  0  0  0  0  0  0  0
    0.0000    0.0000    0.0000 N   0  0  0  0  0  0  0  0  0  0  0  0
   -0.8090    0.5878    0.0000 C   0  0  0  0  0  0  0  0  0  0  0  0
   -0.5000    1.5388    0.0000 C   0  0  0  0  0  0  0  0  0  0  0  0
    0.5000    1.5388    0.0000 C   0  0  0  0  0  0  0  0  0  0  0  0
    0.8090    0.5878    0.0000 C   0  0  1  0  0  0  0  0  0  0  0  0
    1.7601    0.2788    0.0000 C   0  0  0  0  0  0  0  0  0  0  0  0
    1.9680   -0.6994    0.0000 O   0  0  0  0  0  0  0  0  0  0  0  0
    2.5032    0.9479    0.0000 N   0  0  0  0  0  0  0  0  0  0  0  0
    3.4543    0.6389    0.0000 C   0  0  0  0  0  0  0  0  0  0  0  0
    3.6622   -0.3393    0.0000 C   0  0  0  0  0  0  0  0  0  0  0  0
    2.9190   -1.0084    0.0000 O   0  0  0  0  0  0  0  0  0  0  0  0
    4.6132   -0.6483    0.0000 O   0  0  0  0  0  0  0  0  0  0  0  0
   -3.0878   -2.6750    0.0000 C   0  0  1  0  0  0  0  0  0  0  0  0
   -2.7788   -3.6261    0.0000 O   0  0  0  0  0  0  0  0  0  0  0  0
   -4.0388   -2.3660    0.0000 C   0  0  1  0  0  0  0  0  0  0  0  0
   -4.8479   -2.9538    0.0000 O   0  0  0  0  0  0  0  0  0  0  0  0
  1  2  1  0  0  0  0
  2  7  2  0  0  0  0
  2  3  1  0  0  0  0
  3  4  2  0  0  0  0
  4  5  1  0  0  0  0
  5  6  2  0  0  0  0
  6 10  1  0  0  0  0
  6  7  1  0  0  0  0
  7  8  1  0  0  0  0
  8  9  2  0  0  0  0
  9 10  1  0  0  0  0
 11 10  1  6  0  0  0
 11 12  1  0  0  0  0
 11 33  1  0  0  0  0
 12 13  1  0  0  0  0
 13 14  1  6  0  0  0
 13 31  1  0  0  0  0
 14 15  1  0  0  0  0
 15 16  1  0  0  0  0
 16 17  2  0  0  0  0
 16 18  1  0  0  0  0
 16 19  1  0  0  0  0
 19 23  1  0  0  0  0
 19 20  1  0  0  0  0
 20 21  1  0  0  0  0
 21 22  1  0  0  0  0
 22 23  1  0  0  0  0
 23 24  1  1  0  0  0
 24 25  2  0  0  0  0
 24 26  1  0  0  0  0
 26 27  1  0  0  0  0
 27 28  1  0  0  0  0
 28 29  2  0  0  0  0
 28 30  1  0  0  0  0
 31 32  1  1  0  0  0
 31 33  1  0  0  0  0
 33 34  1  1  0  0  0
M  END
> <NMREDATA_VERSION>
1.1

> <NMREDATA_LEVEL>
0

> <NMREDATA_SOLVENT>
D2O

> <NMREDATA_FORMULA>
C17H23N7O9P

> <NMREDATA_SMILES>
OC(=O)CNC(=O)[C@@H]1CCCN1P(=O)(OC[C@H]1O[C@H]([C@@H]([C@@H]1O)O)n1cnc2c1ncnc2N)[O-]

> <NMREDATA_ASSIGNMENT>
P16, 7.67, 16

> <NMREDATA_1D_31P>
Larmor=162
7.67, L=P16

$$$$
