
 OpenBabel06112616462D

 26 28  0  0  0  0  0  0  0  0999 V2000
   -5.3477   -2.8976    0.0000 O   0  0  0  0  0  0  0  0  0  0  0  0
   -4.3966   -2.5886    0.0000 C   0  0  0  0  0  0  0  0  0  0  0  0
   -4.1887   -1.6104    0.0000 C   0  0  0  0  0  0  0  0  0  0  0  0
   -3.2377   -1.3014    0.0000 C   0  0  0  0  0  0  0  0  0  0  0  0
   -2.4945   -1.9706    0.0000 N   0  0  0  0  0  0  0  0  0  0  0  0
   -1.5000   -1.8660    0.0000 C   0  0  0  0  0  0  0  0  0  0  0  0
   -1.0000   -1.0000    0.0000 S   0  0  0  0  0  0  0  0  0  0  0  0
    0.0000   -1.0000    0.0000 P   0  0  0  0  0  0  0  0  0  0  0  0
    0.0000   -2.0000    0.0000 O   0  0  0  0  0  0  0  0  0  0  0  0
    1.0000   -1.0000    0.0000 O   0  0  0  0  0  0  0  0  0  0  0  0
    1.5000   -0.1340    0.0000 C   0  0  0  0  0  0  0  0  0  0  0  0
    2.5000   -0.1340    0.0000 C   0  0  0  0  0  0  0  0  0  0  0  0
    0.0000    0.0000    0.0000 O   0  0  0  0  0  0  0  0  0  0  0  0
    0.8660    0.5000    0.0000 C   0  0  0  0  0  0  0  0  0  0  0  0
    0.8660    1.5000    0.0000 C   0  0  0  0  0  0  0  0  0  0  0  0
   -1.0933   -2.7796    0.0000 C   0  0  0  0  0  0  0  0  0  0  0  0
   -0.1151   -2.9875    0.0000 C   0  0  0  0  0  0  0  0  0  0  0  0
    0.5540   -2.2443    0.0000 C   0  0  0  0  0  0  0  0  0  0  0  0
    1.5322   -2.4522    0.0000 C   0  0  0  0  0  0  0  0  0  0  0  0
    1.8412   -3.4033    0.0000 C   0  0  0  0  0  0  0  0  0  0  0  0
    1.1720   -4.1465    0.0000 C   0  0  0  0  0  0  0  0  0  0  0  0
    0.1939   -3.9385    0.0000 C   0  0  0  0  0  0  0  0  0  0  0  0
   -1.8364   -3.4487    0.0000 N   0  0  0  0  0  0  0  0  0  0  0  0
   -2.7024   -2.9487    0.0000 C   0  0  0  0  0  0  0  0  0  0  0  0
   -3.6535   -3.2577    0.0000 C   0  0  0  0  0  0  0  0  0  0  0  0
   -5.5556   -3.8758    0.0000 C   0  0  0  0  0  0  0  0  0  0  0  0
  1  2  1  0  0  0  0
  1 26  1  0  0  0  0
  2 25  2  0  0  0  0
  2  3  1  0  0  0  0
  3  4  2  0  0  0  0
  4  5  1  0  0  0  0
  5 24  1  0  0  0  0
  5  6  1  0  0  0  0
  6  7  1  0  0  0  0
  6 16  2  0  0  0  0
  7  8  1  0  0  0  0
  8  9  2  0  0  0  0
  8 10  1  0  0  0  0
  8 13  1  0  0  0  0
 10 11  1  0  0  0  0
 11 12  1  0  0  0  0
 13 14  1  0  0  0  0
 14 15  1  0  0  0  0
 16 17  1  0  0  0  0
 16 23  1  0  0  0  0
 17 22  2  0  0  0  0
 17 18  1  0  0  0  0
 18 19  2  0  0  0  0
 19 20  1  0  0  0  0
 20 21  2  0  0  0  0
 21 22  1  0  0  0  0
 23 24  2  0  0  0  0
 24 25  1  0  0  0  0
M  END
> <NMREDATA_VERSION>
1.1

> <NMREDATA_LEVEL>
0

> <NMREDATA_SOLVENT>
CDCl3

> <NMREDATA_FORMULA>
C18H21N2O4PS

> <NMREDATA_SMILES>
CCOP(=O)(Sc1c(nc2n1ccc(c2)OC)c1ccccc1)OCC

> <NMREDATA_ASSIGNMENT>
P8, 19.20, 8

> <NMREDATA_1D_31P>
Larmor=202
19.20, L=P8

$$$$
