
 OpenBabel06112616452D

 25 26  0  0  0  0  0  0  0  0999 V2000
   -1.0000   -1.0000    0.0000 O    0  0  0  0  0  0  0  0  0  0  0  0
    0.0000   -1.0000    0.0000 P    0  0  0  0  0  0  0  0  0  0  0  0
    0.0000   -2.0000    0.0000 O    0  0  0  0  0  0  0  0  0  0  0  0
   -0.8660   -2.5000    0.0000 C    0  0  0  0  0  0  0  0  0  0  0  0
   -1.7321   -2.0000    0.0000 C    0  0  0  0  0  0  0  0  0  0  0  0
   -1.7321   -1.0000    0.0000 C    0  0  0  0  0  0  0  0  0  0  0  0
   -2.5981   -0.5000    0.0000 C    0  0  0  0  0  0  0  0  0  0  0  0
   -3.4641   -1.0000    0.0000 C    0  0  0  0  0  0  0  0  0  0  0  0
   -4.3301   -0.5000    0.0000 C    0  0  0  0  0  0  0  0  0  0  0  0
   -5.1962   -1.0000    0.0000 C    0  0  0  0  0  0  0  0  0  0  0  0
   -6.0622   -0.5000    0.0000 Br   0  0  0  0  0  0  0  0  0  0  0  0
   -5.1962   -2.0000    0.0000 C    0  0  0  0  0  0  0  0  0  0  0  0
   -4.3301   -2.5000    0.0000 C    0  0  0  0  0  0  0  0  0  0  0  0
   -3.4641   -2.0000    0.0000 C    0  0  0  0  0  0  0  0  0  0  0  0
   -2.5981   -2.5000    0.0000 N    0  0  0  0  0  0  0  0  0  0  0  0
    1.0000   -1.0000    0.0000 O    0  0  0  0  0  0  0  0  0  0  0  0
    1.5000   -1.8660    0.0000 C    0  0  0  0  0  0  0  0  0  0  0  0
    1.5000   -2.8660    0.0000 C    0  0  0  0  0  0  0  0  0  0  0  0
    0.6340   -2.3660    0.0000 C    0  0  0  0  0  0  0  0  0  0  0  0
    2.5000   -1.8660    0.0000 C    0  0  0  0  0  0  0  0  0  0  0  0
    0.0000    0.0000    0.0000 O    0  0  0  0  0  0  0  0  0  0  0  0
    0.8660    0.5000    0.0000 C    0  0  0  0  0  0  0  0  0  0  0  0
    1.3660    1.3660    0.0000 C    0  0  0  0  0  0  0  0  0  0  0  0
    0.3660    1.3660    0.0000 C    0  0  0  0  0  0  0  0  0  0  0  0
    1.7321    0.0000    0.0000 C    0  0  0  0  0  0  0  0  0  0  0  0
  1  2  2  0  0  0  0
  2  3  1  0  0  0  0
  2 16  1  0  0  0  0
  2 21  1  0  0  0  0
  3  4  1  0  0  0  0
  4  5  1  0  0  0  0
  5 15  2  0  0  0  0
  5  6  1  0  0  0  0
  6  7  2  0  0  0  0
  7  8  1  0  0  0  0
  8 14  2  0  0  0  0
  8  9  1  0  0  0  0
  9 10  2  0  0  0  0
 10 11  1  0  0  0  0
 10 12  1  0  0  0  0
 12 13  2  0  0  0  0
 13 14  1  0  0  0  0
 14 15  1  0  0  0  0
 16 17  1  0  0  0  0
 17 18  1  0  0  0  0
 17 19  1  0  0  0  0
 17 20  1  0  0  0  0
 21 22  1  0  0  0  0
 22 23  1  0  0  0  0
 22 24  1  0  0  0  0
 22 25  1  0  0  0  0
M  END
> <NMREDATA_VERSION>
1.1

> <NMREDATA_LEVEL>
0

> <NMREDATA_SOLVENT>
CDCl3

> <NMREDATA_FORMULA>
C18H25BrNO4P

> <NMREDATA_SMILES>
Brc1ccc2c(c1)ccc(n2)COP(=O)(OC(C)(C)C)OC(C)(C)C

> <NMREDATA_ASSIGNMENT>
P2, -0.94, 2

> <NMREDATA_1D_31P>
Larmor=162
-0.94, L=P2

$$$$
