
 OpenBabel06112616472D

 32 36  0  0  0  0  0  0  0  0999 V2000
   -0.0909    3.5646    0.0000 O   0  0  0  0  0  0  0  0  0  0  0  0
   -0.8140    2.9136    0.0000 C   0  0  0  0  0  0  0  0  0  0  0  0
   -0.7123    1.9459    0.0000 C   0  0  0  0  0  0  0  0  0  0  0  0
    0.9730    0.9730    0.0000 C   0  0  0  0  0  0  0  0  0  0  0  0
    1.8156    1.4595    0.0000 C   0  0  0  0  0  0  0  0  0  0  0  0
    2.6582    0.9730    0.0000 C   0  0  0  0  0  0  0  0  0  0  0  0
    3.5008    1.4595    0.0000 C   0  0  0  0  0  0  0  0  0  0  0  0
    3.5008    2.4324    0.0000 C   0  0  0  0  0  0  0  0  0  0  0  0
    2.6582    2.9189    0.0000 C   0  0  0  0  0  0  0  0  0  0  0  0
    2.6582    3.8919    0.0000 I   0  0  0  0  0  0  0  0  0  0  0  0
    1.8156    2.4324    0.0000 C   0  0  0  0  0  0  0  0  0  0  0  0
    0.9730    0.0000    0.0000 P   0  0  0  0  0  0  0  0  0  0  0  0
    1.9459    0.0000    0.0000 O   0  0  0  0  0  0  0  0  0  0  0  0
    0.9730   -0.9730    0.0000 C   0  0  0  0  0  0  0  0  0  0  0  0
    0.1304   -1.4595    0.0000 C   0  0  0  0  0  0  0  0  0  0  0  0
    0.1304   -2.4324    0.0000 C   0  0  0  0  0  0  0  0  0  0  0  0
    0.9730   -2.9189    0.0000 C   0  0  0  0  0  0  0  0  0  0  0  0
    1.8156   -2.4324    0.0000 C   0  0  0  0  0  0  0  0  0  0  0  0
    1.8156   -1.4595    0.0000 C   0  0  0  0  0  0  0  0  0  0  0  0
    0.0000    0.0000    0.0000 C   0  0  0  0  0  0  0  0  0  0  0  0
   -0.4865    0.8426    0.0000 C   0  0  0  0  0  0  0  0  0  0  0  0
   -1.4595    0.8426    0.0000 C   0  0  0  0  0  0  0  0  0  0  0  0
   -1.9459    0.0000    0.0000 C   0  0  0  0  0  0  0  0  0  0  0  0
   -1.4595   -0.8426    0.0000 C   0  0  0  0  0  0  0  0  0  0  0  0
   -0.4865   -0.8426    0.0000 C   0  0  0  0  0  0  0  0  0  0  0  0
   -1.6011    1.5502    0.0000 N   0  0  0  0  0  0  0  0  0  0  0  0
   -2.2522    2.2733    0.0000 C   0  0  0  0  0  0  0  0  0  0  0  0
   -3.2251    2.2733    0.0000 C   0  0  0  0  0  0  0  0  0  0  0  0
   -3.7116    3.1159    0.0000 C   0  0  0  0  0  0  0  0  0  0  0  0
   -3.2251    3.9585    0.0000 C   0  0  0  0  0  0  0  0  0  0  0  0
   -2.2522    3.9585    0.0000 C   0  0  0  0  0  0  0  0  0  0  0  0
   -1.7657    3.1159    0.0000 C   0  0  0  0  0  0  0  0  0  0  0  0
  1  2  2  0  0  0  0
  2 32  1  0  0  0  0
  2  3  1  0  0  0  0
  3  4  2  0  0  0  0
  3 26  1  0  0  0  0
  4  5  1  0  0  0  0
  4 12  1  0  0  0  0
  5 11  2  0  0  0  0
  5  6  1  0  0  0  0
  6  7  2  0  0  0  0
  7  8  1  0  0  0  0
  8  9  2  0  0  0  0
  9 10  1  0  0  0  0
  9 11  1  0  0  0  0
 12 13  2  0  0  0  0
 12 14  1  0  0  0  0
 12 20  1  0  0  0  0
 14 19  2  0  0  0  0
 14 15  1  0  0  0  0
 15 16  2  0  0  0  0
 16 17  1  0  0  0  0
 17 18  2  0  0  0  0
 18 19  1  0  0  0  0
 20 25  2  0  0  0  0
 20 21  1  0  0  0  0
 21 22  2  0  0  0  0
 22 23  1  0  0  0  0
 23 24  2  0  0  0  0
 24 25  1  0  0  0  0
 26 27  1  0  0  0  0
 27 32  2  0  0  0  0
 27 28  1  0  0  0  0
 28 29  2  0  0  0  0
 29 30  1  0  0  0  0
 30 31  2  0  0  0  0
 31 32  1  0  0  0  0
M  END
> <NMREDATA_VERSION>
1.1

> <NMREDATA_LEVEL>
0

> <NMREDATA_SOLVENT>
DMSO-d6

> <NMREDATA_FORMULA>
C27H19INO2P

> <NMREDATA_SMILES>
Ic1cccc(c1)/C(=C\1/Nc2c(C1=O)cccc2)/P(=O)(c1ccccc1)c1ccccc1

> <NMREDATA_ASSIGNMENT>
P12, 31.79, 12

> <NMREDATA_1D_31P>
Larmor=243
31.79, L=P12

$$$$
