
 OpenBabel06112616452D

 31 32  0  0  1  0  0  0  0  0999 V2000
   -0.8912    0.6594    0.0000 C   0  0  0  0  0  0  0  0  0  0  0  0
    0.1002    0.5289    0.0000 C   0  0  0  0  0  0  0  0  0  0  0  0
    0.7090    1.3222    0.0000 C   0  0  0  0  0  0  0  0  0  0  0  0
    1.7004    1.1917    0.0000 C   0  0  0  0  0  0  0  0  0  0  0  0
   -1.5000   -0.1340    0.0000 C   0  0  3  0  0  0  0  0  0  0  0  0
   -1.0000   -1.0000    0.0000 C   0  0  0  0  0  0  0  0  0  0  0  0
    0.0000   -1.0000    0.0000 P   0  0  0  0  0  0  0  0  0  0  0  0
    0.0000   -2.0000    0.0000 O   0  0  0  0  0  0  0  0  0  0  0  0
    1.0000   -1.0000    0.0000 O   0  0  0  0  0  0  0  0  0  0  0  0
    1.5000   -1.8660    0.0000 C   0  0  0  0  0  0  0  0  0  0  0  0
    2.5000   -1.8660    0.0000 C   0  0  0  0  0  0  0  0  0  0  0  0
    0.0000    0.0000    0.0000 O   0  0  0  0  0  0  0  0  0  0  0  0
    0.8660    0.5000    0.0000 C   0  0  0  0  0  0  0  0  0  0  0  0
    1.7321    0.0000    0.0000 C   0  0  0  0  0  0  0  0  0  0  0  0
   -1.8827   -1.0579    0.0000 C   0  0  0  0  0  0  0  0  0  0  0  0
   -2.8741   -1.1884    0.0000 C   0  0  0  0  0  0  0  0  0  0  0  0
   -3.2568   -2.1123    0.0000 C   0  0  0  0  0  0  0  0  0  0  0  0
   -4.2483   -2.2428    0.0000 C   0  0  0  0  0  0  0  0  0  0  0  0
   -3.4829   -0.3950    0.0000 C   0  0  0  0  0  0  0  0  0  0  0  0
   -3.1002    0.5289    0.0000 N   0  0  0  0  0  0  0  0  0  0  0  0
   -3.7090    1.3222    0.0000 S   0  0  0  0  0  0  0  0  0  0  0  0
   -2.9156    1.9310    0.0000 O   0  0  0  0  0  0  0  0  0  0  0  0
   -4.3177    2.1156    0.0000 O   0  0  0  0  0  0  0  0  0  0  0  0
   -4.5023    0.7134    0.0000 C   0  0  0  0  0  0  0  0  0  0  0  0
   -4.3718   -0.2780    0.0000 C   0  0  0  0  0  0  0  0  0  0  0  0
   -5.1651   -0.8868    0.0000 C   0  0  0  0  0  0  0  0  0  0  0  0
   -6.0890   -0.5041    0.0000 C   0  0  0  0  0  0  0  0  0  0  0  0
   -6.8824   -1.1128    0.0000 C   0  0  0  0  0  0  0  0  0  0  0  0
   -6.2196    0.4874    0.0000 C   0  0  0  0  0  0  0  0  0  0  0  0
   -5.4262    1.0961    0.0000 C   0  0  0  0  0  0  0  0  0  0  0  0
   -2.1088    0.6594    0.0000 C   0  0  0  0  0  0  0  0  0  0  0  0
  1  2  1  0  0  0  0
  1  5  1  0  0  0  0
  2  3  1  0  0  0  0
  3  4  1  0  0  0  0
  5 31  1  0  0  0  0
  5  6  1  0  0  0  0
  5 15  1  0  0  0  0
  6  7  1  0  0  0  0
  7  8  2  0  0  0  0
  7  9  1  0  0  0  0
  7 12  1  0  0  0  0
  9 10  1  0  0  0  0
 10 11  1  0  0  0  0
 12 13  1  0  0  0  0
 13 14  1  0  0  0  0
 15 16  2  0  0  0  0
 16 17  1  0  0  0  0
 16 19  1  0  0  0  0
 17 18  1  0  0  0  0
 19 20  1  0  0  0  0
 20 21  1  0  0  0  0
 20 31  1  0  0  0  0
 21 22  2  0  0  0  0
 21 23  2  0  0  0  0
 21 24  1  0  0  0  0
 24 30  2  0  0  0  0
 24 25  1  0  0  0  0
 25 26  2  0  0  0  0
 26 27  1  0  0  0  0
 27 28  1  0  0  0  0
 27 29  2  0  0  0  0
 29 30  1  0  0  0  0
M  END
> <NMREDATA_VERSION>
1.1

> <NMREDATA_LEVEL>
0

> <NMREDATA_SOLVENT>
CDCl3

> <NMREDATA_FORMULA>
C23H38NO5PS

> <NMREDATA_SMILES>
CCCCC1(C=C(CC)CN(C1)S(=O)(=O)c1ccc(cc1)C)CP(=O)(OCC)OCC

> <NMREDATA_ASSIGNMENT>
P7, 29.07, 7

> <NMREDATA_1D_31P>
Larmor=121
29.07, L=P7

$$$$
