
 OpenBabel06112616442D

 17 17  0  0  0  0  0  0  0  0999 V2000
    -4.000    -1.000     0.000 C   0  0  0  0  0  0  0  0  0  0  0  0
    -4.500    -1.866     0.000 F   0  0  0  0  0  0  0  0  0  0  0  0
    -4.000     0.000     0.000 F   0  0  0  0  0  0  0  0  0  0  0  0
    -4.866    -0.500     0.000 F   0  0  0  0  0  0  0  0  0  0  0  0
    -3.000    -1.000     0.000 C   0  0  0  0  0  0  0  0  0  0  0  0
    -2.500    -0.134     0.000 C   0  0  0  0  0  0  0  0  0  0  0  0
    -1.500    -0.134     0.000 C   0  0  0  0  0  0  0  0  0  0  0  0
    -1.000    -1.000     0.000 C   0  0  0  0  0  0  0  0  0  0  0  0
     0.000    -1.000     0.000 P   0  0  3  0  0  0  0  0  0  0  0  0
     0.000    -2.000     0.000 O   0  0  0  0  0  0  0  0  0  0  0  0
     1.000    -1.000     0.000 O   0  0  0  0  0  0  0  0  0  0  0  0
     0.000     0.000     0.000 C   0  0  0  0  0  0  0  0  0  0  0  0
    -0.500     0.866     0.000 C   0  0  0  0  0  0  0  0  0  0  0  0
    -1.000     0.000     0.000 C   0  0  0  0  0  0  0  0  0  0  0  0
     0.866     0.500     0.000 C   0  0  0  0  0  0  0  0  0  0  0  0
    -1.500    -1.866     0.000 C   0  0  0  0  0  0  0  0  0  0  0  0
    -2.500    -1.866     0.000 C   0  0  0  0  0  0  0  0  0  0  0  0
  1  2  1  0  0  0  0
  1  3  1  0  0  0  0
  1  4  1  0  0  0  0
  1  5  1  0  0  0  0
  5 17  2  0  0  0  0
  5  6  1  0  0  0  0
  6  7  2  0  0  0  0
  7  8  1  0  0  0  0
  8  9  1  0  0  0  0
  8 16  2  0  0  0  0
  9 10  2  0  0  0  0
  9 11  1  0  0  0  0
  9 12  1  0  0  0  0
 12 13  1  0  0  0  0
 12 14  1  0  0  0  0
 12 15  1  0  0  0  0
 16 17  1  0  0  0  0
M  END
> <NMREDATA_VERSION>
1.1

> <NMREDATA_LEVEL>
0

> <NMREDATA_SOLVENT>
CDCl3

> <NMREDATA_FORMULA>
C11H14F3O2P

> <NMREDATA_SMILES>
OP(=O)(C(C)(C)C)c1ccc(cc1)C(F)(F)F

> <NMREDATA_ASSIGNMENT>
P9, 51.77, 9

> <NMREDATA_1D_31P>
Larmor=162
51.77, L=P9

$$$$
