
 OpenBabel06112616482D

 29 30  0  0  1  0  0  0  0  0999 V2000
    4.5128   -1.9400    0.0000 C   0  0  3  0  0  0  0  0  0  0  0  0
    4.0583   -1.1527    0.0000 C   0  0  0  0  0  0  0  0  0  0  0  0
    3.2710   -0.6981    0.0000 F   0  0  0  0  0  0  0  0  0  0  0  0
    3.2710   -1.6072    0.0000 F   0  0  0  0  0  0  0  0  0  0  0  0
    4.5128   -0.3654    0.0000 C   0  0  0  0  0  0  0  0  0  0  0  0
    5.4219   -0.3654    0.0000 O   0  0  0  0  0  0  0  0  0  0  0  0
    4.0583    0.4219    0.0000 O   0  0  0  0  0  0  0  0  0  0  0  0
    4.5128    1.2092    0.0000 C   0  0  0  0  0  0  0  0  0  0  0  0
    4.0583    1.9965    0.0000 C   0  0  0  0  0  0  0  0  0  0  0  0
    5.4219   -1.9400    0.0000 C   0  0  0  0  0  0  0  0  0  0  0  0
    5.8765   -2.7273    0.0000 C   0  0  0  0  0  0  0  0  0  0  0  0
    5.4219   -3.5146    0.0000 C   0  0  0  0  0  0  0  0  0  0  0  0
    4.5128   -3.5146    0.0000 C   0  0  0  0  0  0  0  0  0  0  0  0
    4.0583   -2.7273    0.0000 C   0  0  3  0  0  0  0  0  0  0  0  0
    0.9091   -0.9091    0.0000 S   0  0  0  0  0  0  0  0  0  0  0  0
    0.9091    0.0000    0.0000 P   0  0  0  0  0  0  0  0  0  0  0  0
    1.8182    0.0000    0.0000 O   0  0  0  0  0  0  0  0  0  0  0  0
    0.9091    0.9091    0.0000 O   0  0  0  0  0  0  0  0  0  0  0  0
    0.1218    1.3636    0.0000 C   0  0  0  0  0  0  0  0  0  0  0  0
   -0.6655    0.9091    0.0000 C   0  0  0  0  0  0  0  0  0  0  0  0
    0.0000    0.0000    0.0000 O   0  0  0  0  0  0  0  0  0  0  0  0
   -0.4545   -0.7873    0.0000 C   0  0  0  0  0  0  0  0  0  0  0  0
   -1.3636   -0.7873    0.0000 C   0  0  0  0  0  0  0  0  0  0  0  0
    3.2710   -3.1818    0.0000 C   0  0  0  0  0  0  0  0  0  0  0  0
    3.2710   -4.0909    0.0000 C   0  0  0  0  0  0  0  0  0  0  0  0
    2.4837   -4.5455    0.0000 C   0  0  0  0  0  0  0  0  0  0  0  0
    1.6964   -4.0909    0.0000 C   0  0  0  0  0  0  0  0  0  0  0  0
    1.6964   -3.1818    0.0000 C   0  0  0  0  0  0  0  0  0  0  0  0
    2.4837   -2.7273    0.0000 C   0  0  0  0  0  0  0  0  0  0  0  0
  1 14  1  0  0  0  0
  1  2  1  0  0  0  0
  1 10  1  0  0  0  0
  2  3  1  0  0  0  0
  2  4  1  0  0  0  0
  2  5  1  0  0  0  0
  5  6  2  0  0  0  0
  5  7  1  0  0  0  0
  7  8  1  0  0  0  0
  8  9  1  0  0  0  0
 10 11  1  0  0  0  0
 11 12  1  0  0  0  0
 12 13  1  0  0  0  0
 13 14  1  0  0  0  0
 14 15  1  0  0  0  0
 14 24  1  0  0  0  0
 15 16  1  0  0  0  0
 16 17  2  0  0  0  0
 16 18  1  0  0  0  0
 16 21  1  0  0  0  0
 18 19  1  0  0  0  0
 19 20  1  0  0  0  0
 21 22  1  0  0  0  0
 22 23  1  0  0  0  0
 24 29  2  0  0  0  0
 24 25  1  0  0  0  0
 25 26  2  0  0  0  0
 26 27  1  0  0  0  0
 27 28  2  0  0  0  0
 28 29  1  0  0  0  0
M  END
> <NMREDATA_VERSION>
1.1

> <NMREDATA_LEVEL>
0

> <NMREDATA_SOLVENT>
CDCl3

> <NMREDATA_FORMULA>
C20H29F2O5PS

> <NMREDATA_SMILES>
CCOC(=O)C(C1CCCCC1(SP(=O)(OCC)OCC)c1ccccc1)(F)F

> <NMREDATA_ASSIGNMENT>
P16, 22.00, 16

> <NMREDATA_1D_31P>
Larmor=243
22.00, L=P16

$$$$
