
 OpenBabel06112616472D

 24 26  0  0  1  0  0  0  0  0999 V2000
    1.7321   -3.0000    0.0000 C    0  0  0  0  0  0  0  0  0  0  0  0
    0.8660   -2.5000    0.0000 C    0  0  0  0  0  0  0  0  0  0  0  0
    0.8660   -1.5000    0.0000 C    0  0  1  0  0  0  0  0  0  0  0  0
    1.7321   -1.0000    0.0000 P    0  0  0  0  0  0  0  0  0  0  0  0
    2.5981   -1.5000    0.0000 C    0  0  0  0  0  0  0  0  0  0  0  0
    3.4641   -1.0000    0.0000 C    0  0  0  0  0  0  0  0  0  0  0  0
    4.3301   -1.5000    0.0000 C    0  0  0  0  0  0  0  0  0  0  0  0
    4.3301   -2.5000    0.0000 C    0  0  0  0  0  0  0  0  0  0  0  0
    3.4641   -3.0000    0.0000 C    0  0  0  0  0  0  0  0  0  0  0  0
    2.5981   -2.5000    0.0000 C    0  0  0  0  0  0  0  0  0  0  0  0
    1.7321    0.0000    0.0000 C    0  0  0  0  0  0  0  0  0  0  0  0
    0.8660    0.5000    0.0000 C    0  0  0  0  0  0  0  0  0  0  0  0
    0.8660    1.5000    0.0000 C    0  0  0  0  0  0  0  0  0  0  0  0
    1.7321    2.0000    0.0000 C    0  0  0  0  0  0  0  0  0  0  0  0
    2.5981    1.5000    0.0000 C    0  0  0  0  0  0  0  0  0  0  0  0
    2.5981    0.5000    0.0000 C    0  0  0  0  0  0  0  0  0  0  0  0
    0.0000   -1.0000    0.0000 C    0  0  0  0  0  0  0  0  0  0  0  0
   -0.8660   -1.5000    0.0000 C    0  0  0  0  0  0  0  0  0  0  0  0
   -1.7321   -1.0000    0.0000 C    0  0  0  0  0  0  0  0  0  0  0  0
   -2.5981   -1.5000    0.0000 Cl   0  0  0  0  0  0  0  0  0  0  0  0
   -1.7321    0.0000    0.0000 C    0  0  0  0  0  0  0  0  0  0  0  0
   -0.8660    0.5000    0.0000 C    0  0  0  0  0  0  0  0  0  0  0  0
    0.0000    0.0000    0.0000 C    0  0  0  0  0  0  0  0  0  0  0  0
    2.5981   -3.5000    0.0000 N    0  0  0  0  0  0  0  0  0  0  0  0
  1  2  1  0  0  0  0
  1 24  3  0  0  0  0
  3  2  1  6  0  0  0
  3  4  1  0  0  0  0
  3 17  1  0  0  0  0
  4  5  1  0  0  0  0
  4 11  1  0  0  0  0
  5 10  2  0  0  0  0
  5  6  1  0  0  0  0
  6  7  2  0  0  0  0
  7  8  1  0  0  0  0
  8  9  2  0  0  0  0
  9 10  1  0  0  0  0
 11 16  2  0  0  0  0
 11 12  1  0  0  0  0
 12 13  2  0  0  0  0
 13 14  1  0  0  0  0
 14 15  2  0  0  0  0
 15 16  1  0  0  0  0
 17 23  2  0  0  0  0
 17 18  1  0  0  0  0
 18 19  2  0  0  0  0
 19 20  1  0  0  0  0
 19 21  1  0  0  0  0
 21 22  2  0  0  0  0
 22 23  1  0  0  0  0
M  END
> <NMREDATA_VERSION>
1.1

> <NMREDATA_LEVEL>
0

> <NMREDATA_SOLVENT>
CDCl3

> <NMREDATA_FORMULA>
C21H17ClNP

> <NMREDATA_SMILES>
N#CC[C@@H](P(c1ccccc1)c1ccccc1)c1cccc(c1)Cl

> <NMREDATA_ASSIGNMENT>
P4, -2.30, 4

> <NMREDATA_1D_31P>
Larmor=243
-2.30, L=P4

$$$$
