
 OpenBabel06112616482D

 27 27  0  0  0  0  0  0  0  0999 V2000
    2.8929   -2.6345    0.0000 C   0  0  0  0  0  0  0  0  0  0  0  0
    3.3750   -1.7994    0.0000 C   0  0  0  0  0  0  0  0  0  0  0  0
    4.3393   -1.7994    0.0000 C   0  0  0  0  0  0  0  0  0  0  0  0
    2.8929   -0.9643    0.0000 N   0  0  0  0  0  0  0  0  0  0  0  0
    1.9286   -0.9643    0.0000 C   0  0  0  0  0  0  0  0  0  0  0  0
    1.9286    0.0000    0.0000 C   0  0  0  0  0  0  0  0  0  0  0  0
    1.0935    0.4821    0.0000 C   0  0  0  0  0  0  0  0  0  0  0  0
    1.0935    1.4464    0.0000 C   0  0  0  0  0  0  0  0  0  0  0  0
    1.9286    1.9286    0.0000 C   0  0  0  0  0  0  0  0  0  0  0  0
    2.7637    1.4464    0.0000 C   0  0  0  0  0  0  0  0  0  0  0  0
    2.7637    0.4821    0.0000 C   0  0  0  0  0  0  0  0  0  0  0  0
    0.0000   -0.9643    0.0000 P   0  0  0  0  0  0  0  0  0  0  0  0
    0.0000   -1.9286    0.0000 O   0  0  0  0  0  0  0  0  0  0  0  0
   -0.9643   -0.9643    0.0000 O   0  0  0  0  0  0  0  0  0  0  0  0
   -1.4464   -1.7994    0.0000 C   0  0  0  0  0  0  0  0  0  0  0  0
   -2.4107   -1.7994    0.0000 C   0  0  0  0  0  0  0  0  0  0  0  0
    0.0000    0.0000    0.0000 O   0  0  0  0  0  0  0  0  0  0  0  0
   -0.8351    0.4821    0.0000 C   0  0  0  0  0  0  0  0  0  0  0  0
   -1.6702    0.0000    0.0000 C   0  0  0  0  0  0  0  0  0  0  0  0
    1.9286   -1.9286    0.0000 P   0  0  0  0  0  0  0  0  0  0  0  0
    0.9643   -1.9286    0.0000 O   0  0  0  0  0  0  0  0  0  0  0  0
    1.9286   -2.8929    0.0000 O   0  0  0  0  0  0  0  0  0  0  0  0
    1.0935   -3.3750    0.0000 C   0  0  0  0  0  0  0  0  0  0  0  0
    0.2584   -2.8929    0.0000 C   0  0  0  0  0  0  0  0  0  0  0  0
    2.8929   -1.9286    0.0000 O   0  0  0  0  0  0  0  0  0  0  0  0
    3.3750   -2.7637    0.0000 C   0  0  0  0  0  0  0  0  0  0  0  0
    2.8929   -3.5988    0.0000 C   0  0  0  0  0  0  0  0  0  0  0  0
  1  2  1  0  0  0  0
  2  3  1  0  0  0  0
  2  4  1  0  0  0  0
  4  5  1  0  0  0  0
  5  6  1  0  0  0  0
  5 12  1  0  0  0  0
  5 20  1  0  0  0  0
  6 11  2  0  0  0  0
  6  7  1  0  0  0  0
  7  8  2  0  0  0  0
  8  9  1  0  0  0  0
  9 10  2  0  0  0  0
 10 11  1  0  0  0  0
 12 13  2  0  0  0  0
 12 14  1  0  0  0  0
 12 17  1  0  0  0  0
 14 15  1  0  0  0  0
 15 16  1  0  0  0  0
 17 18  1  0  0  0  0
 18 19  1  0  0  0  0
 20 21  2  0  0  0  0
 20 22  1  0  0  0  0
 20 25  1  0  0  0  0
 22 23  1  0  0  0  0
 23 24  1  0  0  0  0
 25 26  1  0  0  0  0
 26 27  1  0  0  0  0
M  END
> <NMREDATA_VERSION>
1.1

> <NMREDATA_LEVEL>
0

> <NMREDATA_SOLVENT>
CDCl3

> <NMREDATA_FORMULA>
C18H33NO6P2

> <NMREDATA_SMILES>
CCOP(=O)(C(P(=O)(OCC)OCC)(c1ccccc1)NC(C)C)OCC

> <NMREDATA_ASSIGNMENT>
P12, 19.50, 12
P20, 19.50, 20

> <NMREDATA_1D_31P>
Larmor=202
19.50, L=P12
19.50, L=P20

$$$$
