
 OpenBabel06112616452D

 31 33  0  0  1  0  0  0  0  0999 V2000
    1.9412   -1.6811    0.0000 C   0  0  0  0  0  0  0  0  0  0  0  0
    2.4265   -0.8406    0.0000 C   0  0  0  0  0  0  0  0  0  0  0  0
    3.3971   -0.8406    0.0000 C   0  0  0  0  0  0  0  0  0  0  0  0
    1.9412    0.0000    0.0000 O   0  0  0  0  0  0  0  0  0  0  0  0
    0.9706    0.0000    0.0000 P   0  0  0  0  0  0  0  0  0  0  0  0
    0.9706    0.9706    0.0000 C   0  0  2  0  0  0  0  0  0  0  0  0
    2.6517    0.0000    0.0000 C   0  0  0  0  0  0  0  0  0  0  0  0
    3.4923    0.4853    0.0000 C   0  0  0  0  0  0  0  0  0  0  0  0
    4.3328    0.0000    0.0000 O   0  0  0  0  0  0  0  0  0  0  0  0
    5.1734    0.4853    0.0000 C   0  0  0  0  0  0  0  0  0  0  0  0
    5.1734    1.4559    0.0000 C   0  0  0  0  0  0  0  0  0  0  0  0
    6.0139    1.9412    0.0000 C   0  0  0  0  0  0  0  0  0  0  0  0
    6.8545    1.4559    0.0000 C   0  0  0  0  0  0  0  0  0  0  0  0
    6.8545    0.4853    0.0000 C   0  0  0  0  0  0  0  0  0  0  0  0
    6.0139    0.0000    0.0000 C   0  0  0  0  0  0  0  0  0  0  0  0
    3.4923    1.4559    0.0000 O   0  0  0  0  0  0  0  0  0  0  0  0
    0.0053    1.0720    0.0000 N   0  0  0  0  0  0  0  0  0  0  0  0
   -0.1965    2.0214    0.0000 S   0  0  0  0  0  0  0  0  0  0  0  0
   -0.7670    2.8066    0.0000 O   0  0  0  0  0  0  0  0  0  0  0  0
   -1.1618    1.9200    0.0000 O   0  0  0  0  0  0  0  0  0  0  0  0
    0.6441    2.5067    0.0000 C   0  0  0  0  0  0  0  0  0  0  0  0
    0.8459    3.4561    0.0000 C   0  0  0  0  0  0  0  0  0  0  0  0
    1.7690    3.7560    0.0000 C   0  0  0  0  0  0  0  0  0  0  0  0
    2.4902    3.1066    0.0000 C   0  0  0  0  0  0  0  0  0  0  0  0
    2.2884    2.1572    0.0000 C   0  0  0  0  0  0  0  0  0  0  0  0
    1.3654    1.8573    0.0000 C   0  0  0  0  0  0  0  0  0  0  0  0
    0.9706   -0.9706    0.0000 O   0  0  0  0  0  0  0  0  0  0  0  0
    0.0000    0.0000    0.0000 O   0  0  0  0  0  0  0  0  0  0  0  0
   -0.4853   -0.8406    0.0000 C   0  0  0  0  0  0  0  0  0  0  0  0
   -1.4559   -0.8406    0.0000 C   0  0  0  0  0  0  0  0  0  0  0  0
    0.0000   -1.6811    0.0000 C   0  0  0  0  0  0  0  0  0  0  0  0
  1  2  1  0  0  0  0
  2  3  1  0  0  0  0
  2  4  1  0  0  0  0
  4  5  1  0  0  0  0
  5  6  1  0  0  0  0
  5 27  2  0  0  0  0
  5 28  1  0  0  0  0
  6 26  1  0  0  0  0
  6  7  1  1  0  0  0
  6 17  1  0  0  0  0
  7  8  1  0  0  0  0
  8  9  1  0  0  0  0
  8 16  2  0  0  0  0
  9 10  1  0  0  0  0
 10 15  2  0  0  0  0
 10 11  1  0  0  0  0
 11 12  2  0  0  0  0
 12 13  1  0  0  0  0
 13 14  2  0  0  0  0
 14 15  1  0  0  0  0
 17 18  1  0  0  0  0
 18 19  2  0  0  0  0
 18 20  2  0  0  0  0
 18 21  1  0  0  0  0
 21 26  2  0  0  0  0
 21 22  1  0  0  0  0
 22 23  2  0  0  0  0
 23 24  1  0  0  0  0
 24 25  2  0  0  0  0
 25 26  1  0  0  0  0
 28 29  1  0  0  0  0
 29 30  1  0  0  0  0
 29 31  1  0  0  0  0
M  END
> <NMREDATA_VERSION>
1.1

> <NMREDATA_LEVEL>
0

> <NMREDATA_SOLVENT>
CDCl3

> <NMREDATA_FORMULA>
C21H26NO7PS

> <NMREDATA_SMILES>
CC(OP(=O)([C@]1(CC(=O)Oc2ccccc2)NS(=O)(=O)c2c1cccc2)OC(C)C)C

> <NMREDATA_ASSIGNMENT>
P5, 16.36, 5

> <NMREDATA_1D_31P>
Larmor=162
16.36, L=P5

$$$$
