
 OpenBabel06112616472D

 19 21  0  0  0  0  0  0  0  0999 V2000
    0.5893    0.8819    0.0000 B   0  5  0  0  0  0  0  0  0  0  0  0
    0.9545    0.0000    0.0000 P   0  0  1  0  0  4  0  0  0  0  0  0
    2.7723   -0.5833    0.0000 C   0  0  0  0  0  0  0  0  0  0  0  0
    3.4794    0.0580    0.0000 C   0  0  0  0  0  0  0  0  0  0  0  0
    4.3883   -0.2336    0.0000 C   0  0  0  0  0  0  0  0  0  0  0  0
    4.5902   -1.1666    0.0000 C   0  0  0  0  0  0  0  0  0  0  0  0
    3.8831   -1.8079    0.0000 C   0  0  0  0  0  0  0  0  0  0  0  0
    2.9742   -1.5162    0.0000 C   0  0  0  0  0  0  0  0  0  0  0  0
    1.6295   -0.6750    0.0000 C   0  0  0  0  0  0  0  0  0  0  0  0
    1.6295   -1.6295    0.0000 C   0  0  0  0  0  0  0  0  0  0  0  0
    0.9545   -2.3045    0.0000 C   0  0  0  0  0  0  0  0  0  0  0  0
    0.0000   -2.3045    0.0000 C   0  0  0  0  0  0  0  0  0  0  0  0
   -0.6750   -1.6295    0.0000 O   0  0  0  0  0  0  0  0  0  0  0  0
   -0.6750   -0.6750    0.0000 C   0  0  0  0  0  0  0  0  0  0  0  0
   -1.5970   -0.4279    0.0000 C   0  0  0  0  0  0  0  0  0  0  0  0
   -1.8440    0.4941    0.0000 C   0  0  0  0  0  0  0  0  0  0  0  0
   -1.1691    1.1691    0.0000 C   0  0  0  0  0  0  0  0  0  0  0  0
   -0.2471    0.9220    0.0000 C   0  0  0  0  0  0  0  0  0  0  0  0
    0.0000    0.0000    0.0000 C   0  0  0  0  0  0  0  0  0  0  0  0
  2  1  1  1  0  0  0
  2 19  1  0  0  0  0
  2  3  1  0  0  0  0
  2  9  1  0  0  0  0
  3  8  2  0  0  0  0
  3  4  1  0  0  0  0
  4  5  2  0  0  0  0
  5  6  1  0  0  0  0
  6  7  2  0  0  0  0
  7  8  1  0  0  0  0
  9 10  1  0  0  0  0
 10 11  1  0  0  0  0
 11 12  1  0  0  0  0
 12 13  1  0  0  0  0
 13 14  1  0  0  0  0
 14 19  2  0  0  0  0
 14 15  1  0  0  0  0
 15 16  2  0  0  0  0
 16 17  1  0  0  0  0
 17 18  2  0  0  0  0
 18 19  1  0  0  0  0
M  END
> <NMREDATA_VERSION>
1.1

> <NMREDATA_LEVEL>
0

> <NMREDATA_SOLVENT>
CDCl3

> <NMREDATA_FORMULA>
C16H18BOP

> <NMREDATA_SMILES>
[BH3-][P@]1(CCCCOc2c1cccc2)c1ccccc1

> <NMREDATA_ASSIGNMENT>
P2, 15.40, 2

> <NMREDATA_1D_31P>
Larmor=162
15.40, L=P2

$$$$
