
 OpenBabel06112616472D

 37 39  0  0  1  0  0  0  0  0999 V2000
   -1.5000   -1.8660    0.0000 C   0  0  3  0  0  0  0  0  0  0  0  0
   -2.5000   -1.8660    0.0000 C   0  0  0  0  0  0  0  0  0  0  0  0
   -3.5000   -1.8660    0.0000 C   0  0  0  0  0  0  0  0  0  0  0  0
   -4.5000   -1.8660    0.0000 N   0  0  0  0  0  0  0  0  0  0  0  0
   -5.0000   -2.7321    0.0000 C   0  0  0  0  0  0  0  0  0  0  0  0
   -4.5000   -3.5981    0.0000 C   0  0  0  0  0  0  0  0  0  0  0  0
   -3.5000   -3.5981    0.0000 C   0  0  0  0  0  0  0  0  0  0  0  0
   -5.0000   -1.0000    0.0000 P   0  0  0  0  0  0  0  0  0  0  0  0
   -4.3912   -0.2066    0.0000 O   0  0  0  0  0  0  0  0  0  0  0  0
   -5.2588   -0.0341    0.0000 O   0  0  0  0  0  0  0  0  0  0  0  0
   -6.2247    0.2247    0.0000 C   0  0  0  0  0  0  0  0  0  0  0  0
   -6.9319   -0.4824    0.0000 C   0  0  0  0  0  0  0  0  0  0  0  0
   -7.8978   -0.7412    0.0000 C   0  0  0  0  0  0  0  0  0  0  0  0
   -7.6390    0.2247    0.0000 C   0  0  0  0  0  0  0  0  0  0  0  0
   -6.6730   -1.4483    0.0000 C   0  0  0  0  0  0  0  0  0  0  0  0
   -5.7071   -1.7071    0.0000 O   0  0  0  0  0  0  0  0  0  0  0  0
   -1.0000   -2.7321    0.0000 C   0  0  0  0  0  0  0  0  0  0  0  0
    0.0000   -2.7321    0.0000 C   0  0  0  0  0  0  0  0  0  0  0  0
    0.5000   -3.5981    0.0000 C   0  0  0  0  0  0  0  0  0  0  0  0
    0.0000   -4.4641    0.0000 C   0  0  0  0  0  0  0  0  0  0  0  0
   -1.0000   -4.4641    0.0000 C   0  0  0  0  0  0  0  0  0  0  0  0
   -1.5000   -3.5981    0.0000 C   0  0  0  0  0  0  0  0  0  0  0  0
   -1.0000   -1.0000    0.0000 N   0  0  0  0  0  0  0  0  0  0  0  0
   -1.5000   -0.1340    0.0000 C   0  0  0  0  0  0  0  0  0  0  0  0
   -2.5000   -0.1340    0.0000 C   0  0  0  0  0  0  0  0  0  0  0  0
   -3.0000    0.7321    0.0000 C   0  0  0  0  0  0  0  0  0  0  0  0
   -3.0000   -1.0000    0.0000 C   0  0  0  0  0  0  0  0  0  0  0  0
    0.0000   -1.0000    0.0000 S   0  0  0  0  0  0  0  0  0  0  0  0
    0.0000   -2.0000    0.0000 O   0  0  0  0  0  0  0  0  0  0  0  0
    1.0000   -1.0000    0.0000 O   0  0  0  0  0  0  0  0  0  0  0  0
    0.0000    0.0000    0.0000 C   0  0  0  0  0  0  0  0  0  0  0  0
   -0.8660    0.5000    0.0000 C   0  0  0  0  0  0  0  0  0  0  0  0
   -0.8660    1.5000    0.0000 C   0  0  0  0  0  0  0  0  0  0  0  0
    0.0000    2.0000    0.0000 C   0  0  0  0  0  0  0  0  0  0  0  0
    0.0000    3.0000    0.0000 C   0  0  0  0  0  0  0  0  0  0  0  0
    0.8660    1.5000    0.0000 C   0  0  0  0  0  0  0  0  0  0  0  0
    0.8660    0.5000    0.0000 C   0  0  0  0  0  0  0  0  0  0  0  0
  1  2  1  0  0  0  0
  1 17  1  0  0  0  0
  1 23  1  0  0  0  0
  2  3  3  0  0  0  0
  3  4  1  0  0  0  0
  4  5  1  0  0  0  0
  4  8  1  0  0  0  0
  5  6  1  0  0  0  0
  6  7  2  0  0  0  0
  8 16  1  0  0  0  0
  8  9  2  0  0  0  0
  8 10  1  0  0  0  0
 10 11  1  0  0  0  0
 11 12  1  0  0  0  0
 12 13  1  0  0  0  0
 12 14  1  0  0  0  0
 12 15  1  0  0  0  0
 15 16  1  0  0  0  0
 17 22  2  0  0  0  0
 17 18  1  0  0  0  0
 18 19  2  0  0  0  0
 19 20  1  0  0  0  0
 20 21  2  0  0  0  0
 21 22  1  0  0  0  0
 23 24  1  0  0  0  0
 23 28  1  0  0  0  0
 24 25  1  0  0  0  0
 25 26  2  0  0  0  0
 25 27  1  0  0  0  0
 28 29  2  0  0  0  0
 28 30  2  0  0  0  0
 28 31  1  0  0  0  0
 31 37  2  0  0  0  0
 31 32  1  0  0  0  0
 32 33  2  0  0  0  0
 33 34  1  0  0  0  0
 34 35  1  0  0  0  0
 34 36  2  0  0  0  0
 36 37  1  0  0  0  0
M  END
> <NMREDATA_VERSION>
1.1

> <NMREDATA_LEVEL>
0

> <NMREDATA_SOLVENT>
CDCl3

> <NMREDATA_FORMULA>
C28H35N2O5PS

> <NMREDATA_SMILES>
C=CCN(P1(=O)OCC(CO1)(C)C)C#CC(N(S(=O)(=O)c1ccc(cc1)C)CC(=C)C)c1ccccc1

> <NMREDATA_ASSIGNMENT>
P8, -0.75, 8

> <NMREDATA_1D_31P>
Larmor=202
-0.75, L=P8

$$$$
