
 OpenBabel06112616482D

 32 36  0  0  0  0  0  0  0  0999 V2000
   -3.5686   -2.9945    0.0000 N   0  0  0  0  0  0  0  0  0  0  0  0
   -2.8255   -3.6637    0.0000 C   0  0  0  0  0  0  0  0  0  0  0  0
   -1.8744   -3.3546    0.0000 C   0  0  0  0  0  0  0  0  0  0  0  0
   -1.1313   -4.0238    0.0000 C   0  0  0  0  0  0  0  0  0  0  0  0
   -1.3392   -5.0019    0.0000 C   0  0  0  0  0  0  0  0  0  0  0  0
   -2.2903   -5.3109    0.0000 C   0  0  0  0  0  0  0  0  0  0  0  0
   -3.0334   -4.6418    0.0000 C   0  0  0  0  0  0  0  0  0  0  0  0
   -4.5468   -3.2024    0.0000 C   0  0  0  0  0  0  0  0  0  0  0  0
   -5.0468   -2.3364    0.0000 C   0  0  0  0  0  0  0  0  0  0  0  0
   -4.3776   -1.5933    0.0000 N   0  0  0  0  0  0  0  0  0  0  0  0
   -4.5856   -0.6151    0.0000 C   0  0  0  0  0  0  0  0  0  0  0  0
   -5.5366   -0.3061    0.0000 C   0  0  0  0  0  0  0  0  0  0  0  0
   -5.7445    0.6720    0.0000 C   0  0  0  0  0  0  0  0  0  0  0  0
   -5.0014    1.3412    0.0000 C   0  0  0  0  0  0  0  0  0  0  0  0
   -4.0503    1.0322    0.0000 C   0  0  0  0  0  0  0  0  0  0  0  0
   -3.8424    0.0540    0.0000 C   0  0  0  0  0  0  0  0  0  0  0  0
   -3.4641   -2.0000    0.0000 P   0  0  0  0  0  0  0  0  0  0  0  0
   -2.5981   -1.5000    0.0000 O   0  0  0  0  0  0  0  0  0  0  0  0
   -1.7321   -2.0000    0.0000 C   0  0  0  0  0  0  0  0  0  0  0  0
   -0.8660   -1.5000    0.0000 C   0  0  0  0  0  0  0  0  0  0  0  0
    0.0000   -2.0000    0.0000 C   0  0  0  0  0  0  0  0  0  0  0  0
    0.8660   -1.5000    0.0000 C   0  0  0  0  0  0  0  0  0  0  0  0
    1.7321   -2.0000    0.0000 C   0  0  0  0  0  0  0  0  0  0  0  0
    1.7321   -3.0000    0.0000 C   0  0  0  0  0  0  0  0  0  0  0  0
    0.8660   -3.5000    0.0000 C   0  0  0  0  0  0  0  0  0  0  0  0
    0.0000   -3.0000    0.0000 C   0  0  0  0  0  0  0  0  0  0  0  0
   -0.8660   -0.5000    0.0000 C   0  0  0  0  0  0  0  0  0  0  0  0
   -1.7321    0.0000    0.0000 C   0  0  0  0  0  0  0  0  0  0  0  0
   -1.7321    1.0000    0.0000 C   0  0  0  0  0  0  0  0  0  0  0  0
   -0.8660    1.5000    0.0000 C   0  0  0  0  0  0  0  0  0  0  0  0
    0.0000    1.0000    0.0000 C   0  0  0  0  0  0  0  0  0  0  0  0
    0.0000    0.0000    0.0000 C   0  0  0  0  0  0  0  0  0  0  0  0
  1 17  1  0  0  0  0
  1  2  1  0  0  0  0
  1  8  1  0  0  0  0
  2  7  2  0  0  0  0
  2  3  1  0  0  0  0
  3  4  2  0  0  0  0
  4  5  1  0  0  0  0
  5  6  2  0  0  0  0
  6  7  1  0  0  0  0
  8  9  1  0  0  0  0
  9 10  1  0  0  0  0
 10 11  1  0  0  0  0
 10 17  1  0  0  0  0
 11 16  2  0  0  0  0
 11 12  1  0  0  0  0
 12 13  2  0  0  0  0
 13 14  1  0  0  0  0
 14 15  2  0  0  0  0
 15 16  1  0  0  0  0
 17 18  1  0  0  0  0
 18 19  1  0  0  0  0
 19 20  1  0  0  0  0
 20 21  1  0  0  0  0
 20 27  1  0  0  0  0
 21 26  2  0  0  0  0
 21 22  1  0  0  0  0
 22 23  2  0  0  0  0
 23 24  1  0  0  0  0
 24 25  2  0  0  0  0
 25 26  1  0  0  0  0
 27 32  2  0  0  0  0
 27 28  1  0  0  0  0
 28 29  2  0  0  0  0
 29 30  1  0  0  0  0
 30 31  2  0  0  0  0
 31 32  1  0  0  0  0
M  END
> <NMREDATA_VERSION>
1.1

> <NMREDATA_LEVEL>
0

> <NMREDATA_SOLVENT>
CDCl3

> <NMREDATA_FORMULA>
C28H27N2OP

> <NMREDATA_SMILES>
c1ccc(cc1)N1CCN(P1OCC(c1ccccc1)c1ccccc1)c1ccccc1

> <NMREDATA_ASSIGNMENT>
P17, 103.40, 17

> <NMREDATA_1D_31P>
Larmor=162
103.40, L=P17

$$$$
