
 OpenBabel06112616482D

 41 47  0  0  1  0  0  0  0  0999 V2000
   -2.9257    3.5692    0.0000 C   0  0  0  0  0  0  0  0  0  0  0  0
   -2.9257    2.5995    0.0000 C   0  0  1  0  0  0  0  0  0  0  0  0
   -3.7656    2.1146    0.0000 C   0  0  0  0  0  0  0  0  0  0  0  0
   -4.6054    2.5995    0.0000 C   0  0  0  0  0  0  0  0  0  0  0  0
   -5.4453    2.1146    0.0000 C   0  0  0  0  0  0  0  0  0  0  0  0
   -6.2851    2.5995    0.0000 C   0  0  0  0  0  0  0  0  0  0  0  0
   -6.2851    3.5692    0.0000 C   0  0  0  0  0  0  0  0  0  0  0  0
   -5.4453    4.0541    0.0000 C   0  0  0  0  0  0  0  0  0  0  0  0
   -5.5538    3.0217    0.0000 C   0  0  0  0  0  0  0  0  0  0  0  0
   -2.2050    1.9505    0.0000 P   0  0  3  0  0  0  0  0  0  0  0  0
   -2.0058    2.9213    0.0000 O   0  0  0  0  0  0  0  0  0  0  0  0
   -2.4000    1.0006    0.0000 O   0  0  0  0  0  0  0  0  0  0  0  0
   -1.6710    0.3442    0.0000 C   0  0  3  0  0  0  0  0  0  0  0  0
   -2.3274   -0.3848    0.0000 C   0  0  0  0  0  0  0  0  0  0  0  0
   -2.3274   -1.3658    0.0000 C   0  0  0  0  0  0  0  0  0  0  0  0
   -3.1769   -1.8563    0.0000 C   0  0  0  0  0  0  0  0  0  0  0  0
   -4.0265   -1.3658    0.0000 C   0  0  0  0  0  0  0  0  0  0  0  0
   -4.0265   -0.3848    0.0000 C   0  0  0  0  0  0  0  0  0  0  0  0
   -3.1769    0.1056    0.0000 C   0  0  0  0  0  0  0  0  0  0  0  0
   -0.9417   -0.3124    0.0000 C   0  0  3  0  0  0  0  0  0  0  0  0
   -1.1444   -1.2805    0.0000 C   0  0  0  0  0  0  0  0  0  0  0  0
   -0.1109   -0.4890    0.0000 C   0  0  0  0  0  0  0  0  0  0  0  0
    0.4574    0.1422    0.0000 C   0  0  0  0  0  0  0  0  0  0  0  0
    0.1950    0.9500    0.0000 C   0  0  3  0  0  0  0  0  0  0  0  0
    1.1345    1.2589    0.0000 C   0  0  0  0  0  0  0  0  0  0  0  0
   -0.5343    1.6066    0.0000 C   0  0  3  0  0  0  0  0  0  0  0  0
    0.1221    2.3356    0.0000 C   0  0  0  0  0  0  0  0  0  0  0  0
   -0.3684    3.1851    0.0000 C   0  0  0  0  0  0  0  0  0  0  0  0
    0.1221    4.0347    0.0000 C   0  0  0  0  0  0  0  0  0  0  0  0
    1.1031    4.0347    0.0000 C   0  0  0  0  0  0  0  0  0  0  0  0
    1.5936    3.1851    0.0000 C   0  0  0  0  0  0  0  0  0  0  0  0
    1.1031    2.3356    0.0000 C   0  0  0  0  0  0  0  0  0  0  0  0
   -1.2633    2.2630    0.0000 O   0  0  0  0  0  0  0  0  0  0  0  0
    0.0000    0.0000    0.0000 C   0  0  0  0  0  0  0  0  0  0  0  0
    0.7384   -0.6561    0.0000 C   0  0  0  0  0  0  0  0  0  0  0  0
   -0.9676    0.1990    0.0000 C   0  0  0  0  0  0  0  0  0  0  0  0
   -3.7656    4.0541    0.0000 C   0  0  0  0  0  0  0  0  0  0  0  0
   -3.7656    5.0239    0.0000 C   0  0  0  0  0  0  0  0  0  0  0  0
   -2.9257    5.5088    0.0000 C   0  0  0  0  0  0  0  0  0  0  0  0
   -2.0859    5.0239    0.0000 C   0  0  0  0  0  0  0  0  0  0  0  0
   -2.0859    4.0541    0.0000 C   0  0  0  0  0  0  0  0  0  0  0  0
  1 41  2  0  0  0  0
  1  2  1  0  0  0  0
  1 37  1  0  0  0  0
  2  3  1  6  0  0  0
  2 10  1  0  0  0  0
  3  4  1  0  0  0  0
  4  9  2  0  0  0  0
  4  5  1  0  0  0  0
  5  6  2  0  0  0  0
  6  7  1  0  0  0  0
  7  8  2  0  0  0  0
  8  9  1  0  0  0  0
 10 33  1  0  0  0  0
 10 11  2  0  0  0  0
 10 12  1  0  0  0  0
 12 13  1  0  0  0  0
 13 26  1  0  0  0  0
 13 14  1  0  0  0  0
 13 20  1  0  0  0  0
 14 19  2  0  0  0  0
 14 15  1  0  0  0  0
 15 16  2  0  0  0  0
 16 17  1  0  0  0  0
 17 18  2  0  0  0  0
 18 19  1  0  0  0  0
 20 34  1  0  0  0  0
 20 21  1  0  0  0  0
 20 22  1  0  0  0  0
 22 23  1  0  0  0  0
 23 24  1  0  0  0  0
 24 25  1  0  0  0  0
 24 26  1  0  0  0  0
 24 34  1  0  0  0  0
 26 27  1  0  0  0  0
 26 33  1  0  0  0  0
 27 32  2  0  0  0  0
 27 28  1  0  0  0  0
 28 29  2  0  0  0  0
 29 30  1  0  0  0  0
 30 31  2  0  0  0  0
 31 32  1  0  0  0  0
 34 35  1  0  0  0  0
 34 36  1  0  0  0  0
 37 38  2  0  0  0  0
 38 39  1  0  0  0  0
 39 40  2  0  0  0  0
 40 41  1  0  0  0  0
M  END
> <NMREDATA_VERSION>
1.1

> <NMREDATA_LEVEL>
0

> <NMREDATA_SOLVENT>
CDCl3

> <NMREDATA_FORMULA>
C37H39O3P

> <NMREDATA_SMILES>
O=P1(OC2(C(O1)(c1ccccc1)C1(C(C2(C)CC1)(C)C)C)c1ccccc1)[C@@H](c1ccccc1)Cc1ccccc1

> <NMREDATA_ASSIGNMENT>
P10, 42.06, 10

> <NMREDATA_1D_31P>
Larmor=122
42.06, L=P10

$$$$
