
 OpenBabel06112616452D

 33 37  0  0  0  0  0  0  0  0999 V2000
    0.0000    1.9474    0.0000 C   0  0  0  0  0  0  0  0  0  0  0  0
   -0.8432    1.4605    0.0000 C   0  0  0  0  0  0  0  0  0  0  0  0
   -0.8432    0.4868    0.0000 C   0  0  0  0  0  0  0  0  0  0  0  0
   -1.6865    0.0000    0.0000 C   0  0  0  0  0  0  0  0  0  0  0  0
   -2.5297    0.4868    0.0000 C   0  0  0  0  0  0  0  0  0  0  0  0
   -2.5297    1.4605    0.0000 C   0  0  0  0  0  0  0  0  0  0  0  0
   -1.6865   -0.9737    0.0000 N   0  0  0  0  0  0  0  0  0  0  0  0
   -3.3729   -1.9474    0.0000 C   0  0  0  0  0  0  0  0  0  0  0  0
   -3.3729   -2.9211    0.0000 C   0  0  0  0  0  0  0  0  0  0  0  0
   -4.2162   -3.4079    0.0000 C   0  0  0  0  0  0  0  0  0  0  0  0
   -5.0594   -2.9211    0.0000 C   0  0  0  0  0  0  0  0  0  0  0  0
   -5.0594   -1.9474    0.0000 C   0  0  0  0  0  0  0  0  0  0  0  0
   -5.9026   -1.4605    0.0000 C   0  0  0  0  0  0  0  0  0  0  0  0
   -5.9026   -0.4868    0.0000 C   0  0  0  0  0  0  0  0  0  0  0  0
   -5.0594    0.0000    0.0000 C   0  0  0  0  0  0  0  0  0  0  0  0
   -4.2162   -0.4868    0.0000 N   0  0  0  0  0  0  0  0  0  0  0  0
   -4.2162   -1.4605    0.0000 C   0  0  0  0  0  0  0  0  0  0  0  0
   -0.8432   -1.4605    0.0000 P   0  0  1  0  0  0  0  0  0  0  0  0
   -0.3564   -2.3038    0.0000 O   0  0  0  0  0  0  0  0  0  0  0  0
   -1.3301   -2.3038    0.0000 C   0  0  0  0  0  0  0  0  0  0  0  0
   -2.3038   -2.3038    0.0000 C   0  0  0  0  0  0  0  0  0  0  0  0
   -2.7906   -3.1470    0.0000 C   0  0  0  0  0  0  0  0  0  0  0  0
   -2.3038   -3.9902    0.0000 C   0  0  0  0  0  0  0  0  0  0  0  0
   -1.3301   -3.9902    0.0000 C   0  0  0  0  0  0  0  0  0  0  0  0
   -0.8432   -4.8335    0.0000 C   0  0  0  0  0  0  0  0  0  0  0  0
   -0.8432   -3.1470    0.0000 C   0  0  0  0  0  0  0  0  0  0  0  0
    0.0000   -0.9737    0.0000 C   0  0  0  0  0  0  0  0  0  0  0  0
    0.8432   -1.4605    0.0000 C   0  0  0  0  0  0  0  0  0  0  0  0
    1.6865   -0.9737    0.0000 C   0  0  0  0  0  0  0  0  0  0  0  0
    2.5297   -1.4605    0.0000 C   0  0  0  0  0  0  0  0  0  0  0  0
    1.6865    0.0000    0.0000 C   0  0  0  0  0  0  0  0  0  0  0  0
    0.8432    0.4868    0.0000 C   0  0  0  0  0  0  0  0  0  0  0  0
    0.0000    0.0000    0.0000 C   0  0  0  0  0  0  0  0  0  0  0  0
  1  2  1  0  0  0  0
  2  3  1  0  0  0  0
  3 33  1  0  0  0  0
  3  4  2  0  0  0  0
  4  5  1  0  0  0  0
  4  7  1  0  0  0  0
  5  6  1  0  0  0  0
  7  8  1  0  0  0  0
  7 18  1  0  0  0  0
  8 17  2  0  0  0  0
  8  9  1  0  0  0  0
  9 10  2  0  0  0  0
 10 11  1  0  0  0  0
 11 12  2  0  0  0  0
 12 17  1  0  0  0  0
 12 13  1  0  0  0  0
 13 14  2  0  0  0  0
 14 15  1  0  0  0  0
 15 16  2  0  0  0  0
 16 17  1  0  0  0  0
 18 19  2  1  0  0  0
 18 20  1  0  0  0  0
 18 27  1  0  0  0  0
 20 26  2  0  0  0  0
 20 21  1  0  0  0  0
 21 22  2  0  0  0  0
 22 23  1  0  0  0  0
 23 24  2  0  0  0  0
 24 25  1  0  0  0  0
 24 26  1  0  0  0  0
 27 33  2  0  0  0  0
 27 28  1  0  0  0  0
 28 29  2  0  0  0  0
 29 30  1  0  0  0  0
 29 31  1  0  0  0  0
 31 32  2  0  0  0  0
 32 33  1  0  0  0  0
M  END
> <NMREDATA_VERSION>
1.1

> <NMREDATA_LEVEL>
0

> <NMREDATA_SOLVENT>
CDCl3

> <NMREDATA_FORMULA>
C29H29N2OP

> <NMREDATA_SMILES>
CCC1=C(CC)N([P@](=O)(c2c1ccc(c2)C)c1cccc(c1)C)c1cccc2c1nccc2

> <NMREDATA_ASSIGNMENT>
P18, 16.72, 18

> <NMREDATA_1D_31P>
Larmor=162
16.72, L=P18

$$$$
