
 OpenBabel06112616452D

 10 10  0  0  0  0  0  0  0  0999 V2000
     1.000    -1.000     0.000 C   0  0  0  0  0  0  0  0  0  0  0  0
     1.000     0.000     0.000 P   0  0  0  0  0  0  0  0  0  0  0  0
     2.000     0.000     0.000 C   0  0  0  0  0  0  0  0  0  0  0  0
     1.000     1.000     0.000 O   0  0  0  0  0  0  0  0  0  0  0  0
     0.000     0.000     0.000 C   0  0  0  0  0  0  0  0  0  0  0  0
    -0.500    -0.866     0.000 C   0  0  0  0  0  0  0  0  0  0  0  0
    -1.500    -0.866     0.000 C   0  0  0  0  0  0  0  0  0  0  0  0
    -2.000     0.000     0.000 C   0  0  0  0  0  0  0  0  0  0  0  0
    -1.500     0.866     0.000 C   0  0  0  0  0  0  0  0  0  0  0  0
    -0.500     0.866     0.000 C   0  0  0  0  0  0  0  0  0  0  0  0
  1  2  1  0  0  0  0
  2  3  1  0  0  0  0
  2  4  2  0  0  0  0
  2  5  1  0  0  0  0
  5 10  2  0  0  0  0
  5  6  1  0  0  0  0
  6  7  2  0  0  0  0
  7  8  1  0  0  0  0
  8  9  2  0  0  0  0
  9 10  1  0  0  0  0
M  END
> <NMREDATA_VERSION>
1.1

> <NMREDATA_LEVEL>
0

> <NMREDATA_SOLVENT>
CDCl3

> <NMREDATA_FORMULA>
C8H11OP

> <NMREDATA_SMILES>
CP(=O)(c1ccccc1)C

> <NMREDATA_ASSIGNMENT>
P2, 33.91, 2

> <NMREDATA_1D_31P>
Larmor=162
33.91, L=P2

$$$$
