
 OpenBabel06112616432D

 47 52  0  0  0  0  0  0  0  0999 V2000
    0.8188    1.4182    0.0000 O   0  0  0  0  0  0  0  0  0  0  0  0
    0.0000    0.9455    0.0000 C   0  0  0  0  0  0  0  0  0  0  0  0
   -0.8188    1.4182    0.0000 C   0  0  0  0  0  0  0  0  0  0  0  0
   -1.6376    0.9455    0.0000 C   0  0  0  0  0  0  0  0  0  0  0  0
   -1.6376    0.0000    0.0000 C   0  0  0  0  0  0  0  0  0  0  0  0
   -2.4564   -0.4727    0.0000 P   0  0  0  0  0  0  0  0  0  0  0  0
   -2.4564   -1.4182    0.0000 C   0  0  0  0  0  0  0  0  0  0  0  0
   -3.2752   -1.8909    0.0000 C   0  0  0  0  0  0  0  0  0  0  0  0
   -3.2752   -2.8364    0.0000 C   0  0  0  0  0  0  0  0  0  0  0  0
   -2.4564   -3.3091    0.0000 C   0  0  0  0  0  0  0  0  0  0  0  0
   -2.4564   -4.2545    0.0000 O   0  0  0  0  0  0  0  0  0  0  0  0
   -1.6376   -4.7273    0.0000 C   0  0  0  0  0  0  0  0  0  0  0  0
   -1.6376   -2.8364    0.0000 C   0  0  0  0  0  0  0  0  0  0  0  0
   -1.6376   -1.8909    0.0000 C   0  0  0  0  0  0  0  0  0  0  0  0
   -5.7315    1.4182    0.0000 C   0  0  0  0  0  0  0  0  0  0  0  0
   -5.7315    2.3636    0.0000 C   0  0  0  0  0  0  0  0  0  0  0  0
   -6.5503    2.8364    0.0000 C   0  0  0  0  0  0  0  0  0  0  0  0
   -7.3691    2.3636    0.0000 C   0  0  0  0  0  0  0  0  0  0  0  0
   -7.3691    1.4182    0.0000 C   0  0  0  0  0  0  0  0  0  0  0  0
   -6.5503    0.9455    0.0000 C   0  0  0  0  0  0  0  0  0  0  0  0
   -6.5503    0.0000    0.0000 O   0  0  0  0  0  0  0  0  0  0  0  0
   -5.7315   -0.4727    0.0000 C   0  0  0  0  0  0  0  0  0  0  0  0
   -4.9127    0.0000    0.0000 C   0  0  0  0  0  0  0  0  0  0  0  0
   -4.0939   -0.4727    0.0000 C   0  0  0  0  0  0  0  0  0  0  0  0
   -4.0939   -1.4182    0.0000 C   0  0  0  0  0  0  0  0  0  0  0  0
   -4.9127   -1.8909    0.0000 C   0  0  0  0  0  0  0  0  0  0  0  0
   -5.7315   -1.4182    0.0000 C   0  0  0  0  0  0  0  0  0  0  0  0
   -6.5503   -1.8909    0.0000 P   0  0  0  0  0  0  0  0  0  0  0  0
   -7.3691   -1.4182    0.0000 C   0  0  0  0  0  0  0  0  0  0  0  0
   -8.1879   -1.8909    0.0000 C   0  0  0  0  0  0  0  0  0  0  0  0
   -9.0067   -1.4182    0.0000 C   0  0  0  0  0  0  0  0  0  0  0  0
   -9.0067   -0.4727    0.0000 C   0  0  0  0  0  0  0  0  0  0  0  0
   -9.8255    0.0000    0.0000 O   0  0  0  0  0  0  0  0  0  0  0  0
   -9.8255    0.9455    0.0000 C   0  0  0  0  0  0  0  0  0  0  0  0
   -8.1879    0.0000    0.0000 C   0  0  0  0  0  0  0  0  0  0  0  0
   -7.3691   -0.4727    0.0000 C   0  0  0  0  0  0  0  0  0  0  0  0
   -6.5503   -2.8364    0.0000 C   0  0  0  0  0  0  0  0  0  0  0  0
   -5.7315   -3.3091    0.0000 C   0  0  0  0  0  0  0  0  0  0  0  0
   -5.7315   -4.2545    0.0000 C   0  0  0  0  0  0  0  0  0  0  0  0
   -6.5503   -4.7273    0.0000 C   0  0  0  0  0  0  0  0  0  0  0  0
   -6.5503   -5.6727    0.0000 O   0  0  0  0  0  0  0  0  0  0  0  0
   -5.7315   -6.1455    0.0000 C   0  0  0  0  0  0  0  0  0  0  0  0
   -7.3691   -4.2545    0.0000 C   0  0  0  0  0  0  0  0  0  0  0  0
   -7.3691   -3.3091    0.0000 C   0  0  0  0  0  0  0  0  0  0  0  0
   -0.8188   -0.4727    0.0000 C   0  0  0  0  0  0  0  0  0  0  0  0
    0.0000    0.0000    0.0000 C   0  0  0  0  0  0  0  0  0  0  0  0
    1.6376    0.9455    0.0000 C   0  0  0  0  0  0  0  0  0  0  0  0
  1  2  1  0  0  0  0
  1 47  1  0  0  0  0
  2 46  2  0  0  0  0
  2  3  1  0  0  0  0
  3  4  2  0  0  0  0
  4  5  1  0  0  0  0
  5  6  1  0  0  0  0
  5 45  2  0  0  0  0
  6  7  1  0  0  0  0
  6 15  1  0  0  0  0
  7 14  2  0  0  0  0
  7  8  1  0  0  0  0
  8  9  2  0  0  0  0
  9 10  1  0  0  0  0
 10 11  1  0  0  0  0
 10 13  2  0  0  0  0
 11 12  1  0  0  0  0
 13 14  1  0  0  0  0
 15 20  2  0  0  0  0
 15 16  1  0  0  0  0
 16 17  2  0  0  0  0
 17 18  1  0  0  0  0
 18 19  2  0  0  0  0
 19 20  1  0  0  0  0
 20 21  1  0  0  0  0
 21 22  1  0  0  0  0
 22 27  2  0  0  0  0
 22 23  1  0  0  0  0
 23 24  2  0  0  0  0
 24 25  1  0  0  0  0
 25 26  2  0  0  0  0
 26 27  1  0  0  0  0
 27 28  1  0  0  0  0
 28 29  1  0  0  0  0
 28 37  1  0  0  0  0
 29 36  2  0  0  0  0
 29 30  1  0  0  0  0
 30 31  2  0  0  0  0
 31 32  1  0  0  0  0
 32 33  1  0  0  0  0
 32 35  2  0  0  0  0
 33 34  1  0  0  0  0
 35 36  1  0  0  0  0
 37 44  2  0  0  0  0
 37 38  1  0  0  0  0
 38 39  2  0  0  0  0
 39 40  1  0  0  0  0
 40 41  1  0  0  0  0
 40 43  2  0  0  0  0
 41 42  1  0  0  0  0
 43 44  1  0  0  0  0
 45 46  1  0  0  0  0
M  END
> <NMREDATA_VERSION>
1.1

> <NMREDATA_LEVEL>
0

> <NMREDATA_SOLVENT>
CDCl3

> <NMREDATA_FORMULA>
C40H36O5P2

> <NMREDATA_SMILES>
COc1ccc(cc1)P(c1ccccc1Oc1ccccc1P(c1ccc(cc1)OC)c1ccc(cc1)OC)c1ccc(cc1)OC

> <NMREDATA_ASSIGNMENT>
P6, -18.95, 6
P28, -18.95, 28

> <NMREDATA_1D_31P>
Larmor=200
-18.95, L=P6
-18.95, L=P28

$$$$
