
 OpenBabel06112616482D

 30 32  0  0  0  0  0  0  0  0999 V2000
    2.4244   -4.0232    0.0000 O   0  0  0  0  0  0  0  0  0  0  0  0
    1.4733   -3.7142    0.0000 C   0  0  0  0  0  0  0  0  0  0  0  0
    0.7302   -4.3833    0.0000 C   0  0  0  0  0  0  0  0  0  0  0  0
   -0.2209   -4.0743    0.0000 C   0  0  0  0  0  0  0  0  0  0  0  0
   -0.4288   -3.0962    0.0000 C   0  0  0  0  0  0  0  0  0  0  0  0
   -1.3799   -2.7872    0.0000 C   0  0  0  0  0  0  0  0  0  0  0  0
   -2.1230   -3.4563    0.0000 C   0  0  0  0  0  0  0  0  0  0  0  0
   -3.0741   -3.1473    0.0000 C   0  0  0  0  0  0  0  0  0  0  0  0
   -3.2820   -2.1691    0.0000 C   0  0  0  0  0  0  0  0  0  0  0  0
   -2.5388   -1.5000    0.0000 C   0  0  0  0  0  0  0  0  0  0  0  0
   -2.5388   -0.5000    0.0000 C   0  0  0  0  0  0  0  0  0  0  0  0
   -1.5878   -0.1910    0.0000 C   0  0  0  0  0  0  0  0  0  0  0  0
   -1.0000   -1.0000    0.0000 N   0  0  0  0  0  0  0  0  0  0  0  0
    0.0000   -1.0000    0.0000 P   0  0  0  0  0  0  0  0  0  0  0  0
    0.0000   -2.0000    0.0000 O   0  0  0  0  0  0  0  0  0  0  0  0
    1.0000   -1.0000    0.0000 C   0  0  0  0  0  0  0  0  0  0  0  0
    1.8660   -0.5000    0.0000 C   0  0  0  0  0  0  0  0  0  0  0  0
    1.0000    0.0000    0.0000 C   0  0  0  0  0  0  0  0  0  0  0  0
    1.5000   -1.8660    0.0000 C   0  0  0  0  0  0  0  0  0  0  0  0
    0.0000    0.0000    0.0000 C   0  0  0  0  0  0  0  0  0  0  0  0
   -0.5000    0.8660    0.0000 C   0  0  0  0  0  0  0  0  0  0  0  0
   -1.0000    0.0000    0.0000 C   0  0  0  0  0  0  0  0  0  0  0  0
    0.8660    0.5000    0.0000 C   0  0  0  0  0  0  0  0  0  0  0  0
   -1.5878   -1.8090    0.0000 C   0  0  0  0  0  0  0  0  0  0  0  0
    0.3143   -2.4271    0.0000 C   0  0  0  0  0  0  0  0  0  0  0  0
    1.2654   -2.7361    0.0000 C   0  0  0  0  0  0  0  0  0  0  0  0
    2.6323   -5.0014    0.0000 C   0  0  0  0  0  0  0  0  0  0  0  0
    3.3014   -5.7445    0.0000 F   0  0  0  0  0  0  0  0  0  0  0  0
    3.6104   -4.7935    0.0000 F   0  0  0  0  0  0  0  0  0  0  0  0
    1.8891   -5.6705    0.0000 F   0  0  0  0  0  0  0  0  0  0  0  0
  1  2  1  0  0  0  0
  1 27  1  0  0  0  0
  2 26  2  0  0  0  0
  2  3  1  0  0  0  0
  3  4  2  0  0  0  0
  4  5  1  0  0  0  0
  5  6  1  0  0  0  0
  5 25  2  0  0  0  0
  6 24  2  0  0  0  0
  6  7  1  0  0  0  0
  7  8  2  0  0  0  0
  8  9  1  0  0  0  0
  9 10  2  0  0  0  0
 10 24  1  0  0  0  0
 10 11  1  0  0  0  0
 11 12  2  0  0  0  0
 12 13  1  0  0  0  0
 13 14  1  0  0  0  0
 13 24  1  0  0  0  0
 14 15  2  0  0  0  0
 14 16  1  0  0  0  0
 14 20  1  0  0  0  0
 16 17  1  0  0  0  0
 16 18  1  0  0  0  0
 16 19  1  0  0  0  0
 20 21  1  0  0  0  0
 20 22  1  0  0  0  0
 20 23  1  0  0  0  0
 25 26  1  0  0  0  0
 27 28  1  0  0  0  0
 27 29  1  0  0  0  0
 27 30  1  0  0  0  0
M  END
> <NMREDATA_VERSION>
1.1

> <NMREDATA_LEVEL>
0

> <NMREDATA_SOLVENT>
CDCl3

> <NMREDATA_FORMULA>
C23H27F3NO2P

> <NMREDATA_SMILES>
FC(Oc1ccc(cc1)c1cccc2c1n(cc2)P(=O)(C(C)(C)C)C(C)(C)C)(F)F

> <NMREDATA_ASSIGNMENT>
P14, 62.94, 14

> <NMREDATA_1D_31P>
Larmor=162
62.94, L=P14

$$$$
