
 OpenBabel06112616422D

 37 42  0  0  1  0  0  0  0  0999 V2000
    0.9945   -0.1045    0.0000 C   0  0  0  0  0  0  0  0  0  0  0  0
    1.4013   -1.0181    0.0000 C   0  0  0  0  0  0  0  0  0  0  0  0
    0.8135   -1.8271    0.0000 C   0  0  0  0  0  0  0  0  0  0  0  0
   -0.1810   -1.7226    0.0000 C   0  0  0  0  0  0  0  0  0  0  0  0
   -0.7688   -2.5316    0.0000 C   0  0  2  0  0  0  0  0  0  0  0  0
   -0.4598   -3.4826    0.0000 C   0  0  1  0  0  0  0  0  0  0  0  0
    0.4912   -3.7917    0.0000 C   0  0  0  0  0  0  0  0  0  0  0  0
    1.2344   -3.1225    0.0000 C   0  0  0  0  0  0  0  0  0  0  0  0
    2.1854   -3.4315    0.0000 C   0  0  0  0  0  0  0  0  0  0  0  0
    2.3934   -4.4097    0.0000 C   0  0  0  0  0  0  0  0  0  0  0  0
    1.6502   -5.0788    0.0000 C   0  0  0  0  0  0  0  0  0  0  0  0
    0.6992   -4.7698    0.0000 C   0  0  0  0  0  0  0  0  0  0  0  0
   -1.2688   -4.0704    0.0000 N   0  0  0  0  0  0  0  0  0  0  0  0
   -1.2688   -5.0704    0.0000 C   0  0  0  0  0  0  0  0  0  0  0  0
   -0.4028   -5.5704    0.0000 C   0  0  0  0  0  0  0  0  0  0  0  0
   -0.4028   -6.5704    0.0000 C   0  0  0  0  0  0  0  0  0  0  0  0
   -1.2688   -7.0704    0.0000 C   0  0  0  0  0  0  0  0  0  0  0  0
   -2.1349   -6.5704    0.0000 C   0  0  0  0  0  0  0  0  0  0  0  0
   -2.1349   -5.5704    0.0000 C   0  0  0  0  0  0  0  0  0  0  0  0
   -2.0779   -3.4826    0.0000 P   0  0  3  0  0  0  0  0  0  0  0  0
   -3.0289   -3.7917    0.0000 O   0  0  0  0  0  0  0  0  0  0  0  0
   -3.7721   -3.1225    0.0000 C   0  0  0  0  0  0  0  0  0  0  0  0
   -4.7231   -3.4315    0.0000 C   0  0  0  0  0  0  0  0  0  0  0  0
   -4.9310   -4.4097    0.0000 C   0  0  0  0  0  0  0  0  0  0  0  0
   -5.8821   -4.7187    0.0000 C   0  0  0  0  0  0  0  0  0  0  0  0
   -6.6252   -4.0496    0.0000 C   0  0  0  0  0  0  0  0  0  0  0  0
   -6.4173   -3.0714    0.0000 C   0  0  0  0  0  0  0  0  0  0  0  0
   -5.4663   -2.7624    0.0000 N   0  0  0  0  0  0  0  0  0  0  0  0
   -1.7688   -2.5316    0.0000 N   0  0  0  0  0  0  0  0  0  0  0  0
   -2.3566   -1.7226    0.0000 C   0  0  0  0  0  0  0  0  0  0  0  0
   -3.3511   -1.8271    0.0000 C   0  0  0  0  0  0  0  0  0  0  0  0
   -3.9389   -1.0181    0.0000 C   0  0  0  0  0  0  0  0  0  0  0  0
   -3.5322   -0.1045    0.0000 C   0  0  0  0  0  0  0  0  0  0  0  0
   -2.5377    0.0000    0.0000 C   0  0  0  0  0  0  0  0  0  0  0  0
   -1.9499   -0.8090    0.0000 C   0  0  0  0  0  0  0  0  0  0  0  0
   -0.5878   -0.8090    0.0000 C   0  0  0  0  0  0  0  0  0  0  0  0
    0.0000    0.0000    0.0000 C   0  0  0  0  0  0  0  0  0  0  0  0
  1 37  2  0  0  0  0
  1  2  1  0  0  0  0
  2  3  2  0  0  0  0
  3  4  1  0  0  0  0
  4 36  2  0  0  0  0
  5  4  1  6  0  0  0
  5  6  1  0  0  0  0
  5 29  1  0  0  0  0
  6  7  1  1  0  0  0
  6 13  1  0  0  0  0
  7 12  2  0  0  0  0
  7  8  1  0  0  0  0
  8  9  2  0  0  0  0
  9 10  1  0  0  0  0
 10 11  2  0  0  0  0
 11 12  1  0  0  0  0
 13 14  1  0  0  0  0
 13 20  1  0  0  0  0
 14 19  2  0  0  0  0
 14 15  1  0  0  0  0
 15 16  2  0  0  0  0
 16 17  1  0  0  0  0
 17 18  2  0  0  0  0
 18 19  1  0  0  0  0
 20 21  1  0  0  0  0
 20 29  1  0  0  0  0
 21 22  1  0  0  0  0
 22 23  1  0  0  0  0
 23 28  2  0  0  0  0
 23 24  1  0  0  0  0
 24 25  2  0  0  0  0
 25 26  1  0  0  0  0
 26 27  2  0  0  0  0
 27 28  1  0  0  0  0
 29 30  1  0  0  0  0
 30 35  2  0  0  0  0
 30 31  1  0  0  0  0
 31 32  2  0  0  0  0
 32 33  1  0  0  0  0
 33 34  2  0  0  0  0
 34 35  1  0  0  0  0
 36 37  1  0  0  0  0
M  END
> <NMREDATA_VERSION>
1.1

> <NMREDATA_LEVEL>
0

> <NMREDATA_SOLVENT>
CDCl3

> <NMREDATA_FORMULA>
C32H28N3OP

> <NMREDATA_SMILES>
c1ccc(cc1)[C@H]1N(c2ccccc2)P(N([C@@H]1c1ccccc1)c1ccccc1)OCc1ccccn1

> <NMREDATA_ASSIGNMENT>
P20, 129.72, 20

> <NMREDATA_1D_31P>
Larmor=162
129.72, L=P20

$$$$
