
 OpenBabel06112616452D

 29 33  0  0  0  0  0  0  0  0999 V2000
    0.9698   -3.7111    0.0000 C   0  5  0  0  0  0  0  0  0  0  0  0
    1.2788   -2.7601    0.0000 N   0  3  0  0  0  0  0  0  0  0  0  0
    1.5878   -1.8090    0.0000 C   0  0  0  0  0  0  0  0  0  0  0  0
    1.0000   -1.0000    0.0000 C   0  0  0  0  0  0  0  0  0  0  0  0
    0.0000   -1.0000    0.0000 P   0  0  0  0  0  0  0  0  0  0  0  0
    0.0000   -2.0000    0.0000 O   0  0  0  0  0  0  0  0  0  0  0  0
   -1.0000   -1.0000    0.0000 C   0  0  0  0  0  0  0  0  0  0  0  0
   -1.5000   -0.1340    0.0000 C   0  0  0  0  0  0  0  0  0  0  0  0
   -2.5000   -0.1340    0.0000 C   0  0  0  0  0  0  0  0  0  0  0  0
   -3.0000   -1.0000    0.0000 C   0  0  0  0  0  0  0  0  0  0  0  0
   -2.5000   -1.8660    0.0000 C   0  0  0  0  0  0  0  0  0  0  0  0
   -1.5000   -1.8660    0.0000 C   0  0  0  0  0  0  0  0  0  0  0  0
    0.0000    0.0000    0.0000 C   0  0  0  0  0  0  0  0  0  0  0  0
    0.8660    0.5000    0.0000 C   0  0  0  0  0  0  0  0  0  0  0  0
    0.8660    1.5000    0.0000 C   0  0  0  0  0  0  0  0  0  0  0  0
    0.0000    2.0000    0.0000 C   0  0  0  0  0  0  0  0  0  0  0  0
   -0.8660    1.5000    0.0000 C   0  0  0  0  0  0  0  0  0  0  0  0
   -0.8660    0.5000    0.0000 C   0  0  0  0  0  0  0  0  0  0  0  0
    1.5878   -0.1910    0.0000 N   0  0  0  0  0  0  0  0  0  0  0  0
    2.5388   -0.5000    0.0000 C   0  0  0  0  0  0  0  0  0  0  0  0
    2.5388   -1.5000    0.0000 C   0  0  0  0  0  0  0  0  0  0  0  0
    3.4049   -2.0000    0.0000 C   0  0  0  0  0  0  0  0  0  0  0  0
    4.2709   -1.5000    0.0000 C   0  0  0  0  0  0  0  0  0  0  0  0
    4.2709   -0.5000    0.0000 C   0  0  0  0  0  0  0  0  0  0  0  0
    5.1369    0.0000    0.0000 C   0  0  0  0  0  0  0  0  0  0  0  0
    5.1369    1.0000    0.0000 C   0  0  0  0  0  0  0  0  0  0  0  0
    4.2709    1.5000    0.0000 C   0  0  0  0  0  0  0  0  0  0  0  0
    3.4049    1.0000    0.0000 C   0  0  0  0  0  0  0  0  0  0  0  0
    3.4049    0.0000    0.0000 C   0  0  0  0  0  0  0  0  0  0  0  0
  1  2  3  0  0  0  0
  2  3  1  0  0  0  0
  3 21  1  0  0  0  0
  3  4  2  0  0  0  0
  4  5  1  0  0  0  0
  4 19  1  0  0  0  0
  5  6  2  0  0  0  0
  5  7  1  0  0  0  0
  5 13  1  0  0  0  0
  7 12  2  0  0  0  0
  7  8  1  0  0  0  0
  8  9  2  0  0  0  0
  9 10  1  0  0  0  0
 10 11  2  0  0  0  0
 11 12  1  0  0  0  0
 13 18  2  0  0  0  0
 13 14  1  0  0  0  0
 14 15  2  0  0  0  0
 15 16  1  0  0  0  0
 16 17  2  0  0  0  0
 17 18  1  0  0  0  0
 19 20  1  0  0  0  0
 20 29  1  0  0  0  0
 20 21  2  0  0  0  0
 21 22  1  0  0  0  0
 22 23  1  0  0  0  0
 23 24  1  0  0  0  0
 24 29  2  0  0  0  0
 24 25  1  0  0  0  0
 25 26  2  0  0  0  0
 26 27  1  0  0  0  0
 27 28  2  0  0  0  0
 28 29  1  0  0  0  0
M  END
> <NMREDATA_VERSION>
1.1

> <NMREDATA_LEVEL>
0

> <NMREDATA_SOLVENT>
CDCl3

> <NMREDATA_FORMULA>
C25H19N2OP

> <NMREDATA_SMILES>
[C-]#[N+]c1c2CCc3c(-c2[nH]c1P(=O)(c1ccccc1)c1ccccc1)cccc3

> <NMREDATA_ASSIGNMENT>
P5, 20.10, 5

> <NMREDATA_1D_31P>
Larmor=160
20.10, L=P5

$$$$
