
 OpenBabel06112616492D

 19 20  0  0  1  0  0  0  0  0999 V2000
    2.4633   -1.0192    0.0000 O   0  0  0  0  0  0  0  0  0  0  0  0
    2.9633   -0.1532    0.0000 C   0  0  0  0  0  0  0  0  0  0  0  0
    2.4633    0.7128    0.0000 O   0  0  0  0  0  0  0  0  0  0  0  0
    2.9633    1.5788    0.0000 C   0  0  0  0  0  0  0  0  0  0  0  0
    1.4633   -1.0192    0.0000 C   0  0  0  0  0  0  0  0  0  0  0  0
    0.9633   -0.1532    0.0000 C   0  0  3  0  0  0  0  0  0  0  0  0
    1.2221    0.8127    0.0000 C   0  0  3  0  0  0  0  0  0  0  0  0
    0.3528    0.9041    0.0000 C   0  0  0  0  0  0  0  0  0  0  0  0
   -0.0027    0.1056    0.0000 C   0  0  3  0  0  0  0  0  0  0  0  0
   -0.9874   -0.9874    0.0000 C   0  0  0  0  0  0  0  0  0  0  0  0
    0.0000   -0.9874    0.0000 P   0  0  0  0  0  0  0  0  0  0  0  0
    0.0000   -1.9748    0.0000 O   0  0  0  0  0  0  0  0  0  0  0  0
    0.9874   -0.9874    0.0000 O   0  0  0  0  0  0  0  0  0  0  0  0
    1.4811   -0.1323    0.0000 C   0  0  0  0  0  0  0  0  0  0  0  0
    2.4685   -0.1323    0.0000 C   0  0  0  0  0  0  0  0  0  0  0  0
    0.0000    0.0000    0.0000 O   0  0  0  0  0  0  0  0  0  0  0  0
    0.9473    0.2786    0.0000 C   0  0  0  0  0  0  0  0  0  0  0  0
    1.1797    1.2382    0.0000 C   0  0  0  0  0  0  0  0  0  0  0  0
    0.2562    1.0715    0.0000 C   0  0  0  0  0  0  0  0  0  0  0  0
  1  2  1  0  0  0  0
  1  5  1  0  0  0  0
  2  3  1  0  0  0  0
  3  4  1  0  0  0  0
  5  6  1  0  0  0  0
  6  9  1  0  0  0  0
  6  7  1  0  0  0  0
  7 19  1  0  0  0  0
  7  8  1  0  0  0  0
  8  9  1  0  0  0  0
  9 10  1  0  0  0  0
  9 19  1  0  0  0  0
 10 11  1  0  0  0  0
 11 12  2  0  0  0  0
 11 13  1  0  0  0  0
 11 16  1  0  0  0  0
 13 14  1  0  0  0  0
 14 15  1  0  0  0  0
 16 17  1  0  0  0  0
 17 18  1  0  0  0  0
M  END
> <NMREDATA_VERSION>
1.1

> <NMREDATA_LEVEL>
0

> <NMREDATA_SOLVENT>
CDCl3

> <NMREDATA_FORMULA>
C13H25O5P

> <NMREDATA_SMILES>
COCOCC1C2CC1(C2)CP(=O)(OCC)OCC

> <NMREDATA_ASSIGNMENT>
P11, 28.28, 11

> <NMREDATA_1D_31P>
Larmor=162
28.28, L=P11

$$$$
