
 OpenBabel06112616442D

 86 95  0  0  1  0  0  0  0  0999 V2000
   -2.7498   -0.1048    0.0000 C   0  0  1  0  0  0  0  0  0  0  0  0
   -3.0556   -1.0460    0.0000 C   0  0  0  0  0  0  0  0  0  0  0  0
   -3.9968   -1.3518    0.0000 N   0  0  0  0  0  0  0  0  0  0  0  0
   -3.9968   -2.3414    0.0000 C   0  0  0  0  0  0  0  0  0  0  0  0
   -4.7322   -3.0035    0.0000 C   0  0  0  0  0  0  0  0  0  0  0  0
   -4.5264   -3.9715    0.0000 C   0  0  0  0  0  0  0  0  0  0  0  0
   -5.2618   -4.6337    0.0000 F   0  0  0  0  0  0  0  0  0  0  0  0
   -3.5853   -4.2773    0.0000 C   0  0  0  0  0  0  0  0  0  0  0  0
   -3.1738   -6.2132    0.0000 N   0  0  0  0  0  0  0  0  0  0  0  0
   -3.8359   -6.9486    0.0000 C   0  0  1  0  0  0  0  0  0  0  0  0
   -4.8201   -6.8452    0.0000 C   0  0  0  0  0  0  0  0  0  0  0  0
   -5.2226   -5.9411    0.0000 C   0  0  0  0  0  0  0  0  0  0  0  0
   -6.2068   -5.8377    0.0000 C   0  0  0  0  0  0  0  0  0  0  0  0
   -6.7884   -5.0371    0.0000 N   0  0  0  0  0  0  0  0  0  0  0  0
   -7.7296   -5.3429    0.0000 C   0  0  0  0  0  0  0  0  0  0  0  0
   -8.5302   -4.7613    0.0000 C   0  0  1  0  0  0  0  0  0  0  0  0
   -9.4713   -5.0671    0.0000 N   0  0  0  0  0  0  0  0  0  0  0  0
   -9.7771   -6.0082    0.0000 C   0  0  0  0  0  0  0  0  0  0  0  0
  -10.7451   -6.2139    0.0000 C   0  0  2  0  0  0  0  0  0  0  0  0
  -11.4072   -5.4785    0.0000 C   0  0  1  0  0  0  0  0  0  0  0  0
  -11.1014   -4.5374    0.0000 C   0  0  0  0  0  0  0  0  0  0  0  0
  -12.3752   -5.6843    0.0000 O   0  0  0  0  0  0  0  0  0  0  0  0
  -12.6810   -6.6254    0.0000 C   0  0  0  0  0  0  0  0  0  0  0  0
  -11.0509   -7.1551    0.0000 N   0  0  0  0  0  0  0  0  0  0  0  0
  -10.3887   -7.8905    0.0000 C   0  0  0  0  0  0  0  0  0  0  0  0
  -10.6945   -8.8317    0.0000 O   0  0  0  0  0  0  0  0  0  0  0  0
   -9.4208   -7.6848    0.0000 O   0  0  0  0  0  0  0  0  0  0  0  0
   -8.7586   -8.4202    0.0000 C   0  0  0  0  0  0  0  0  0  0  0  0
   -9.1150   -6.7436    0.0000 O   0  0  0  0  0  0  0  0  0  0  0  0
  -10.0530   -4.2665    0.0000 C   0  0  0  0  0  0  0  0  0  0  0  0
   -9.4713   -3.4659    0.0000 C   0  0  0  0  0  0  0  0  0  0  0  0
   -8.5302   -3.7717    0.0000 C   0  0  0  0  0  0  0  0  0  0  0  0
   -7.7296   -6.3325    0.0000 N   0  0  0  0  0  0  0  0  0  0  0  0
   -6.7884   -6.6383    0.0000 C   0  0  0  0  0  0  0  0  0  0  0  0
   -6.3859   -7.5423    0.0000 C   0  0  0  0  0  0  0  0  0  0  0  0
   -5.4018   -7.6458    0.0000 C   0  0  0  0  0  0  0  0  0  0  0  0
   -4.9993   -8.5498    0.0000 F   0  0  0  0  0  0  0  0  0  0  0  0
   -3.3412   -7.8056    0.0000 C   0  0  0  0  0  0  0  0  0  0  0  0
   -2.3732   -7.5999    0.0000 C   0  0  0  0  0  0  0  0  0  0  0  0
   -2.2698   -6.6157    0.0000 C   0  0  2  0  0  0  0  0  0  0  0  0
   -1.4128   -6.1209    0.0000 C   0  0  0  0  0  0  0  0  0  0  0  0
   -0.5557   -6.6157    0.0000 C   0  0  0  0  0  0  0  0  0  0  0  0
    0.3013   -6.1209    0.0000 C   0  0  0  0  0  0  0  0  0  0  0  0
    1.1583   -6.6157    0.0000 F   0  0  0  0  0  0  0  0  0  0  0  0
    0.3013   -5.1313    0.0000 C   0  0  0  0  0  0  0  0  0  0  0  0
    1.1583   -4.6365    0.0000 N   0  0  0  0  0  0  0  0  0  0  0  0
    2.0153   -5.1313    0.0000 C   0  0  0  0  0  0  0  0  0  0  0  0
    2.8723   -4.6365    0.0000 C   0  0  0  0  0  0  0  0  0  0  0  0
    2.8723   -3.6470    0.0000 C   0  0  3  0  0  0  0  0  0  0  0  0
    3.7293   -3.1522    0.0000 C   0  0  0  0  0  0  0  0  0  0  0  0
    4.5863   -3.6470    0.0000 C   0  0  0  0  0  0  0  0  0  0  0  0
    5.4433   -3.1522    0.0000 C   0  0  0  0  0  0  0  0  0  0  0  0
    5.4433   -2.1626    0.0000 C   0  0  0  0  0  0  0  0  0  0  0  0
    6.3003   -1.6678    0.0000 F   0  0  0  0  0  0  0  0  0  0  0  0
    4.5863   -1.6678    0.0000 C   0  0  0  0  0  0  0  0  0  0  0  0
    3.7293   -2.1626    0.0000 C   0  0  0  0  0  0  0  0  0  0  0  0
    2.0153   -3.1522    0.0000 C   0  0  0  0  0  0  0  0  0  0  0  0
    1.1583   -3.6470    0.0000 C   0  0  0  0  0  0  0  0  0  0  0  0
   -0.5557   -4.6365    0.0000 C   0  0  0  0  0  0  0  0  0  0  0  0
   -0.5557   -3.6470    0.0000 F   0  0  0  0  0  0  0  0  0  0  0  0
   -1.4128   -5.1313    0.0000 C   0  0  0  0  0  0  0  0  0  0  0  0
   -2.8499   -3.6151    0.0000 C   0  0  0  0  0  0  0  0  0  0  0  0
   -3.0556   -2.6472    0.0000 C   0  0  0  0  0  0  0  0  0  0  0  0
   -2.4740   -1.8466    0.0000 N   0  0  0  0  0  0  0  0  0  0  0  0
   -1.4844   -1.8466    0.0000 C   0  0  0  0  0  0  0  0  0  0  0  0
   -0.9896   -0.9896    0.0000 O   0  0  0  0  0  0  0  0  0  0  0  0
    0.0000   -0.9896    0.0000 P   0  0  0  0  0  0  0  0  0  0  0  0
    0.0000   -1.9792    0.0000 O   0  0  0  0  0  0  0  0  0  0  0  0
    0.9896   -0.9896    0.0000 O   0  0  0  0  0  0  0  0  0  0  0  0
    0.0000    0.0000    0.0000 O   0  0  0  0  0  0  0  0  0  0  0  0
   -3.3315    0.6957    0.0000 N   0  0  0  0  0  0  0  0  0  0  0  0
   -4.3211    0.6957    0.0000 C   0  0  0  0  0  0  0  0  0  0  0  0
   -4.8159    1.5527    0.0000 C   0  0  1  0  0  0  0  0  0  0  0  0
   -4.3211    2.4098    0.0000 N   0  0  0  0  0  0  0  0  0  0  0  0
   -4.8159    3.2668    0.0000 C   0  0  0  0  0  0  0  0  0  0  0  0
   -5.8054    3.2668    0.0000 O   0  0  0  0  0  0  0  0  0  0  0  0
   -4.3211    4.1238    0.0000 O   0  0  0  0  0  0  0  0  0  0  0  0
   -4.8159    4.9808    0.0000 C   0  0  0  0  0  0  0  0  0  0  0  0
   -5.8054    1.5527    0.0000 C   0  0  1  0  0  0  0  0  0  0  0  0
   -6.3002    2.4098    0.0000 C   0  0  0  0  0  0  0  0  0  0  0  0
   -6.3002    0.6957    0.0000 O   0  0  0  0  0  0  0  0  0  0  0  0
   -5.8054   -0.1613    0.0000 C   0  0  0  0  0  0  0  0  0  0  0  0
   -4.8159   -0.1613    0.0000 O   0  0  0  0  0  0  0  0  0  0  0  0
   -2.7498    1.4963    0.0000 C   0  0  0  0  0  0  0  0  0  0  0  0
   -1.8087    1.1905    0.0000 C   0  0  0  0  0  0  0  0  0  0  0  0
   -1.8087    0.2009    0.0000 C   0  0  0  0  0  0  0  0  0  0  0  0
  1  2  1  1  0  0  0
  1 86  1  0  0  0  0
  1 71  1  0  0  0  0
  2 64  1  0  0  0  0
  2  3  2  0  0  0  0
  3  4  1  0  0  0  0
  4 63  2  0  0  0  0
  4  5  1  0  0  0  0
  5  6  2  0  0  0  0
  6  7  1  0  0  0  0
  6  8  1  0  0  0  0
  8  9  1  0  0  0  0
  8 62  2  0  0  0  0
  9 40  1  0  0  0  0
  9 10  1  0  0  0  0
 10 11  1  6  0  0  0
 10 38  1  0  0  0  0
 11 36  2  0  0  0  0
 11 12  1  0  0  0  0
 12 13  2  0  0  0  0
 13 34  1  0  0  0  0
 13 14  1  0  0  0  0
 14 15  2  0  0  0  0
 15 33  1  0  0  0  0
 16 15  1  1  0  0  0
 16 17  1  0  0  0  0
 16 32  1  0  0  0  0
 17 18  1  0  0  0  0
 17 30  1  0  0  0  0
 18 29  2  0  0  0  0
 19 18  1  1  0  0  0
 19 20  1  0  0  0  0
 19 24  1  0  0  0  0
 20 21  1  6  0  0  0
 20 22  1  0  0  0  0
 22 23  1  0  0  0  0
 24 25  1  0  0  0  0
 25 26  2  0  0  0  0
 25 27  1  0  0  0  0
 27 28  1  0  0  0  0
 30 31  1  0  0  0  0
 31 32  1  0  0  0  0
 33 34  1  0  0  0  0
 34 35  2  0  0  0  0
 35 36  1  0  0  0  0
 36 37  1  0  0  0  0
 38 39  1  0  0  0  0
 39 40  1  0  0  0  0
 40 41  1  1  0  0  0
 41 61  1  0  0  0  0
 41 42  2  0  0  0  0
 42 43  1  0  0  0  0
 43 44  1  0  0  0  0
 43 45  2  0  0  0  0
 45 46  1  0  0  0  0
 45 59  1  0  0  0  0
 46 58  1  0  0  0  0
 46 47  1  0  0  0  0
 47 48  1  0  0  0  0
 48 49  1  0  0  0  0
 49 50  1  0  0  0  0
 49 57  1  0  0  0  0
 50 56  1  0  0  0  0
 50 51  2  0  0  0  0
 51 52  1  0  0  0  0
 52 53  2  0  0  0  0
 53 54  1  0  0  0  0
 53 55  1  0  0  0  0
 55 56  2  0  0  0  0
 57 58  1  0  0  0  0
 59 60  1  0  0  0  0
 59 61  2  0  0  0  0
 62 63  1  0  0  0  0
 63 64  1  0  0  0  0
 64 65  1  0  0  0  0
 65 66  1  0  0  0  0
 66 67  1  0  0  0  0
 67 68  1  0  0  0  0
 67 69  1  0  0  0  0
 67 70  2  0  0  0  0
 71 72  1  0  0  0  0
 71 84  1  0  0  0  0
 72 83  2  0  0  0  0
 73 72  1  6  0  0  0
 73 74  1  0  0  0  0
 73 79  1  0  0  0  0
 74 75  1  0  0  0  0
 75 76  2  0  0  0  0
 75 77  1  0  0  0  0
 77 78  1  0  0  0  0
 79 80  1  6  0  0  0
 79 81  1  0  0  0  0
 81 82  1  0  0  0  0
 84 85  1  0  0  0  0
 85 86  1  0  0  0  0
M  END
> <NMREDATA_VERSION>
1.1

> <NMREDATA_LEVEL>
0

> <NMREDATA_SOLVENT>
CD3OD

> <NMREDATA_FORMULA>
C58H68F5N10O12P

> <NMREDATA_SMILES>
COC(=O)N[C@H](C(=O)N1CCC[C@H]1c1nc2c(n1COP(=O)(O)O)cc(c(c2)F)N1[C@H](CC[C@@H]1c1cc2nc([nH]c2cc1F)[C@@H]1CCCN1C(=O)[C@H]([C@H](OC)C)NC(=O)OC)c1cc(F)c(c(c1)F)N1CCC(CC1)c1ccc(cc1)F)[C@H](OC)C

> <NMREDATA_ASSIGNMENT>
P67, -2.30, 67

> <NMREDATA_1D_31P>
Larmor=162
-2.30, L=P67

$$$$
