
 OpenBabel06112616432D

 27 29  0  0  0  0  0  0  0  0999 V2000
    1.0000   -2.7321    0.0000 C    0  0  0  0  0  0  0  0  0  0  0  0
    1.5000   -1.8660    0.0000 C    0  0  0  0  0  0  0  0  0  0  0  0
    2.5000   -1.8660    0.0000 C    0  0  0  0  0  0  0  0  0  0  0  0
    3.5000   -1.8660    0.0000 C    0  0  0  0  0  0  0  0  0  0  0  0
    4.0000   -2.7321    0.0000 C    0  0  0  0  0  0  0  0  0  0  0  0
    5.0000   -2.7321    0.0000 C    0  0  0  0  0  0  0  0  0  0  0  0
    5.5000   -3.5981    0.0000 C    0  0  0  0  0  0  0  0  0  0  0  0
    5.0000   -4.4641    0.0000 C    0  0  0  0  0  0  0  0  0  0  0  0
    4.0000   -4.4641    0.0000 C    0  0  0  0  0  0  0  0  0  0  0  0
    3.5000   -3.5981    0.0000 C    0  0  0  0  0  0  0  0  0  0  0  0
    1.0000   -1.0000    0.0000 C    0  0  0  0  0  0  0  0  0  0  0  0
    0.0000   -1.0000    0.0000 P    0  0  0  0  0  0  0  0  0  0  0  0
    0.0000   -2.0000    0.0000 O    0  0  0  0  0  0  0  0  0  0  0  0
   -1.0000   -1.0000    0.0000 C    0  0  0  0  0  0  0  0  0  0  0  0
   -1.5000   -0.1340    0.0000 C    0  0  0  0  0  0  0  0  0  0  0  0
   -2.5000   -0.1340    0.0000 C    0  0  0  0  0  0  0  0  0  0  0  0
   -3.0000   -1.0000    0.0000 C    0  0  0  0  0  0  0  0  0  0  0  0
   -4.0000   -1.0000    0.0000 Cl   0  0  0  0  0  0  0  0  0  0  0  0
   -2.5000   -1.8660    0.0000 C    0  0  0  0  0  0  0  0  0  0  0  0
   -1.5000   -1.8660    0.0000 C    0  0  0  0  0  0  0  0  0  0  0  0
    0.0000    0.0000    0.0000 C    0  0  0  0  0  0  0  0  0  0  0  0
    0.8660    0.5000    0.0000 C    0  0  0  0  0  0  0  0  0  0  0  0
    0.8660    1.5000    0.0000 C    0  0  0  0  0  0  0  0  0  0  0  0
    0.0000    2.0000    0.0000 C    0  0  0  0  0  0  0  0  0  0  0  0
    0.0000    3.0000    0.0000 Cl   0  0  0  0  0  0  0  0  0  0  0  0
   -0.8660    1.5000    0.0000 C    0  0  0  0  0  0  0  0  0  0  0  0
   -0.8660    0.5000    0.0000 C    0  0  0  0  0  0  0  0  0  0  0  0
  1  2  1  0  0  0  0
  2  3  2  0  0  0  0
  2 11  1  0  0  0  0
  3  4  2  0  0  0  0
  4  5  1  0  0  0  0
  5 10  2  0  0  0  0
  5  6  1  0  0  0  0
  6  7  2  0  0  0  0
  7  8  1  0  0  0  0
  8  9  2  0  0  0  0
  9 10  1  0  0  0  0
 11 12  1  0  0  0  0
 12 13  2  0  0  0  0
 12 14  1  0  0  0  0
 12 21  1  0  0  0  0
 14 20  2  0  0  0  0
 14 15  1  0  0  0  0
 15 16  2  0  0  0  0
 16 17  1  0  0  0  0
 17 18  1  0  0  0  0
 17 19  2  0  0  0  0
 19 20  1  0  0  0  0
 21 27  2  0  0  0  0
 21 22  1  0  0  0  0
 22 23  2  0  0  0  0
 23 24  1  0  0  0  0
 24 25  1  0  0  0  0
 24 26  2  0  0  0  0
 26 27  1  0  0  0  0
M  END
> <NMREDATA_VERSION>
1.1

> <NMREDATA_LEVEL>
0

> <NMREDATA_SOLVENT>
CDCl3

> <NMREDATA_FORMULA>
C23H19Cl2OP

> <NMREDATA_SMILES>
Clc1ccc(cc1)P(=O)(c1ccc(cc1)Cl)CC(=C=Cc1ccccc1)C

> <NMREDATA_ASSIGNMENT>
P12, 29.10, 12

> <NMREDATA_1D_31P>
Larmor=162
29.10, L=P12

$$$$
