
 OpenBabel06112616442D

 30 32  0  0  0  0  0  0  0  0999 V2000
    3.8788   -0.9697    0.0000 C   0  0  0  0  0  0  0  0  0  0  0  0
    4.3636   -0.1299    0.0000 F   0  0  0  0  0  0  0  0  0  0  0  0
    3.8788   -1.9394    0.0000 F   0  0  0  0  0  0  0  0  0  0  0  0
    4.7186   -1.4545    0.0000 F   0  0  0  0  0  0  0  0  0  0  0  0
    2.9091   -0.9697    0.0000 C   0  0  0  0  0  0  0  0  0  0  0  0
    2.4242   -0.1299    0.0000 C   0  0  0  0  0  0  0  0  0  0  0  0
    1.4545   -0.1299    0.0000 C   0  0  0  0  0  0  0  0  0  0  0  0
    0.9697   -0.9697    0.0000 C   0  0  0  0  0  0  0  0  0  0  0  0
    0.0000   -0.9697    0.0000 P   0  0  0  0  0  0  0  0  0  0  0  0
    0.0000   -1.9394    0.0000 O   0  0  0  0  0  0  0  0  0  0  0  0
   -1.9394   -0.9697    0.0000 C   0  0  0  0  0  0  0  0  0  0  0  0
   -2.4242   -0.1299    0.0000 C   0  0  0  0  0  0  0  0  0  0  0  0
   -3.3939   -0.1299    0.0000 C   0  0  0  0  0  0  0  0  0  0  0  0
   -3.8788   -0.9697    0.0000 C   0  0  0  0  0  0  0  0  0  0  0  0
   -4.8485   -0.9697    0.0000 C   0  0  0  0  0  0  0  0  0  0  0  0
   -5.6883   -0.4848    0.0000 F   0  0  0  0  0  0  0  0  0  0  0  0
   -4.8485    0.0000    0.0000 F   0  0  0  0  0  0  0  0  0  0  0  0
   -5.3333   -1.8095    0.0000 F   0  0  0  0  0  0  0  0  0  0  0  0
   -3.3939   -1.8095    0.0000 C   0  0  0  0  0  0  0  0  0  0  0  0
   -2.4242   -1.8095    0.0000 C   0  0  0  0  0  0  0  0  0  0  0  0
    0.0000    0.0000    0.0000 C   0  0  0  0  0  0  0  0  0  0  0  0
    0.8398    0.4848    0.0000 C   0  0  0  0  0  0  0  0  0  0  0  0
    0.8398    1.4545    0.0000 C   0  0  0  0  0  0  0  0  0  0  0  0
    1.6796    1.9394    0.0000 C   0  0  0  0  0  0  0  0  0  0  0  0
    0.0000    1.9394    0.0000 C   0  0  0  0  0  0  0  0  0  0  0  0
   -0.8398    1.4545    0.0000 C   0  0  0  0  0  0  0  0  0  0  0  0
   -0.8398    0.4848    0.0000 C   0  0  0  0  0  0  0  0  0  0  0  0
   -1.6796    0.0000    0.0000 O   0  0  0  0  0  0  0  0  0  0  0  0
    1.4545   -1.8095    0.0000 C   0  0  0  0  0  0  0  0  0  0  0  0
    2.4242   -1.8095    0.0000 C   0  0  0  0  0  0  0  0  0  0  0  0
  1  2  1  0  0  0  0
  1  3  1  0  0  0  0
  1  4  1  0  0  0  0
  1  5  1  0  0  0  0
  5 30  2  0  0  0  0
  5  6  1  0  0  0  0
  6  7  2  0  0  0  0
  7  8  1  0  0  0  0
  8  9  1  0  0  0  0
  8 29  2  0  0  0  0
  9 10  2  0  0  0  0
  9 11  1  0  0  0  0
  9 21  1  0  0  0  0
 11 20  2  0  0  0  0
 11 12  1  0  0  0  0
 12 13  2  0  0  0  0
 13 14  1  0  0  0  0
 14 15  1  0  0  0  0
 14 19  2  0  0  0  0
 15 16  1  0  0  0  0
 15 17  1  0  0  0  0
 15 18  1  0  0  0  0
 19 20  1  0  0  0  0
 21 27  2  0  0  0  0
 21 22  1  0  0  0  0
 22 23  2  0  0  0  0
 23 24  1  0  0  0  0
 23 25  1  0  0  0  0
 25 26  2  0  0  0  0
 26 27  1  0  0  0  0
 27 28  1  0  0  0  0
 29 30  1  0  0  0  0
M  END
> <NMREDATA_VERSION>
1.1

> <NMREDATA_LEVEL>
0

> <NMREDATA_SOLVENT>
CDCl3

> <NMREDATA_FORMULA>
C21H15F6O2P

> <NMREDATA_SMILES>
Cc1ccc(c(c1)P(=O)(c1ccc(cc1)C(F)(F)F)c1ccc(cc1)C(F)(F)F)O

> <NMREDATA_ASSIGNMENT>
P9, 36.70, 9

> <NMREDATA_1D_31P>
Larmor=162
36.70, L=P9

$$$$
