
 OpenBabel06112616472D

 30 34  0  0  0  0  0  0  0  0999 V2000
   -0.8413    2.4286    0.0000 C   0  0  0  0  0  0  0  0  0  0  0  0
   -0.8413    1.4571    0.0000 O   0  0  0  0  0  0  0  0  0  0  0  0
    0.0000    0.9714    0.0000 C   0  0  0  0  0  0  0  0  0  0  0  0
    0.8413    1.4571    0.0000 C   0  0  0  0  0  0  0  0  0  0  0  0
    1.6826    0.9714    0.0000 C   0  0  0  0  0  0  0  0  0  0  0  0
    1.6826    0.0000    0.0000 C   0  0  0  0  0  0  0  0  0  0  0  0
    2.5238   -0.4857    0.0000 C   0  0  0  0  0  0  0  0  0  0  0  0
    3.3651    0.0000    0.0000 C   0  0  0  0  0  0  0  0  0  0  0  0
    4.2064   -0.4857    0.0000 P   0  0  0  0  0  0  0  0  0  0  0  0
    6.1493   -0.4857    0.0000 C   0  0  0  0  0  0  0  0  0  0  0  0
    6.6350    0.3556    0.0000 C   0  0  0  0  0  0  0  0  0  0  0  0
    7.6064    0.3556    0.0000 C   0  0  0  0  0  0  0  0  0  0  0  0
    8.0921   -0.4857    0.0000 C   0  0  0  0  0  0  0  0  0  0  0  0
    7.6064   -1.3270    0.0000 C   0  0  0  0  0  0  0  0  0  0  0  0
    6.6350   -1.3270    0.0000 C   0  0  0  0  0  0  0  0  0  0  0  0
    4.6921    0.3556    0.0000 C   0  0  0  0  0  0  0  0  0  0  0  0
    4.2064    1.1968    0.0000 C   0  0  0  0  0  0  0  0  0  0  0  0
    4.6921    2.0381    0.0000 C   0  0  0  0  0  0  0  0  0  0  0  0
    5.6636    2.0381    0.0000 C   0  0  0  0  0  0  0  0  0  0  0  0
    6.1493    1.1968    0.0000 C   0  0  0  0  0  0  0  0  0  0  0  0
    5.6636    0.3556    0.0000 C   0  0  0  0  0  0  0  0  0  0  0  0
    4.2064   -1.4571    0.0000 C   0  0  0  0  0  0  0  0  0  0  0  0
    3.3651   -1.9429    0.0000 C   0  0  0  0  0  0  0  0  0  0  0  0
    3.3651   -2.9143    0.0000 C   0  0  0  0  0  0  0  0  0  0  0  0
    2.5238   -3.4000    0.0000 C   0  0  0  0  0  0  0  0  0  0  0  0
    1.6826   -2.9143    0.0000 C   0  0  0  0  0  0  0  0  0  0  0  0
    1.6826   -1.9429    0.0000 C   0  0  0  0  0  0  0  0  0  0  0  0
    2.5238   -1.4571    0.0000 C   0  0  0  0  0  0  0  0  0  0  0  0
    0.8413   -0.4857    0.0000 C   0  0  0  0  0  0  0  0  0  0  0  0
    0.0000    0.0000    0.0000 C   0  0  0  0  0  0  0  0  0  0  0  0
  1  2  1  0  0  0  0
  2  3  1  0  0  0  0
  3 30  2  0  0  0  0
  3  4  1  0  0  0  0
  4  5  2  0  0  0  0
  5  6  1  0  0  0  0
  6  7  1  0  0  0  0
  6 29  2  0  0  0  0
  7 28  1  0  0  0  0
  7  8  2  0  0  0  0
  8  9  1  0  0  0  0
  9 10  1  0  0  0  0
  9 16  1  0  0  0  0
  9 22  2  0  0  0  0
 10 15  2  0  0  0  0
 10 11  1  0  0  0  0
 11 12  2  0  0  0  0
 12 13  1  0  0  0  0
 13 14  2  0  0  0  0
 14 15  1  0  0  0  0
 16 21  2  0  0  0  0
 16 17  1  0  0  0  0
 17 18  2  0  0  0  0
 18 19  1  0  0  0  0
 19 20  2  0  0  0  0
 20 21  1  0  0  0  0
 22 23  1  0  0  0  0
 23 28  2  0  0  0  0
 23 24  1  0  0  0  0
 24 25  2  0  0  0  0
 25 26  1  0  0  0  0
 26 27  2  0  0  0  0
 27 28  1  0  0  0  0
 29 30  1  0  0  0  0
M  END
> <NMREDATA_VERSION>
1.1

> <NMREDATA_LEVEL>
0

> <NMREDATA_SOLVENT>
C6D6

> <NMREDATA_FORMULA>
C28H23OP

> <NMREDATA_SMILES>
COc1ccc(cc1)C1=CP(=Cc2c1cccc2)(c1ccccc1)c1ccccc1

> <NMREDATA_ASSIGNMENT>
P9, 0.02, 9

> <NMREDATA_1D_31P>
Larmor=243
0.02, L=P9

$$$$
