
 OpenBabel06112616432D

 22 23  0  0  0  0  0  0  0  0999 V2000
    3.5981    1.5000    0.0000 C   0  0  0  0  0  0  0  0  0  0  0  0
    4.4641    1.0000    0.0000 N   0  3  0  0  0  0  0  0  0  0  0  0
    4.4641    0.0000    0.0000 O   0  0  0  0  0  0  0  0  0  0  0  0
    5.3301    1.5000    0.0000 O   0  5  0  0  0  0  0  0  0  0  0  0
    2.7321    1.0000    0.0000 C   0  0  0  0  0  0  0  0  0  0  0  0
    1.8660    1.5000    0.0000 C   0  0  0  0  0  0  0  0  0  0  0  0
    1.0000    1.0000    0.0000 S   0  0  0  0  0  0  0  0  0  0  0  0
    1.0000    0.0000    0.0000 P   0  0  0  0  0  0  0  0  0  0  0  0
    2.0000    0.0000    0.0000 O   0  0  0  0  0  0  0  0  0  0  0  0
    1.0000   -1.0000    0.0000 O   0  0  0  0  0  0  0  0  0  0  0  0
    1.8660   -1.5000    0.0000 C   0  0  0  0  0  0  0  0  0  0  0  0
    2.7321   -1.0000    0.0000 C   0  0  0  0  0  0  0  0  0  0  0  0
    0.0000    0.0000    0.0000 O   0  0  0  0  0  0  0  0  0  0  0  0
   -0.5000    0.8660    0.0000 C   0  0  0  0  0  0  0  0  0  0  0  0
   -1.5000    0.8660    0.0000 C   0  0  0  0  0  0  0  0  0  0  0  0
    1.8660    2.5000    0.0000 N   0  0  0  0  0  0  0  0  0  0  0  0
    2.7321    3.0000    0.0000 C   0  0  0  0  0  0  0  0  0  0  0  0
    2.7321    4.0000    0.0000 C   0  0  0  0  0  0  0  0  0  0  0  0
    3.5981    4.5000    0.0000 C   0  0  0  0  0  0  0  0  0  0  0  0
    4.4641    4.0000    0.0000 C   0  0  0  0  0  0  0  0  0  0  0  0
    4.4641    3.0000    0.0000 C   0  0  0  0  0  0  0  0  0  0  0  0
    3.5981    2.5000    0.0000 C   0  0  0  0  0  0  0  0  0  0  0  0
  1 22  2  0  0  0  0
  1  2  1  0  0  0  0
  1  5  1  0  0  0  0
  2  3  2  0  0  0  0
  2  4  1  0  0  0  0
  5  6  2  0  0  0  0
  6  7  1  0  0  0  0
  6 16  1  0  0  0  0
  7  8  1  0  0  0  0
  8  9  2  0  0  0  0
  8 10  1  0  0  0  0
  8 13  1  0  0  0  0
 10 11  1  0  0  0  0
 11 12  1  0  0  0  0
 13 14  1  0  0  0  0
 14 15  1  0  0  0  0
 16 17  2  0  0  0  0
 17 22  1  0  0  0  0
 17 18  1  0  0  0  0
 18 19  2  0  0  0  0
 19 20  1  0  0  0  0
 20 21  2  0  0  0  0
 21 22  1  0  0  0  0
M  END
> <NMREDATA_VERSION>
1.1

> <NMREDATA_LEVEL>
0

> <NMREDATA_SOLVENT>
CDCl3

> <NMREDATA_FORMULA>
C13H15N2O5PS

> <NMREDATA_SMILES>
CCOP(=O)(Sc1nc2ccccc2c(c1)[N+](=O)[O-])OCC

> <NMREDATA_ASSIGNMENT>
P8, 18.73, 8

> <NMREDATA_1D_31P>
Larmor=162
18.73, L=P8

$$$$
