
 OpenBabel06112616432D

 22 23  0  0  0  0  0  0  0  0999 V2000
    2.9591    1.7145    0.0000 C   0  0  0  0  0  0  0  0  0  0  0  0
    2.4800    0.8846    0.0000 O   0  0  0  0  0  0  0  0  0  0  0  0
    2.9591    0.0546    0.0000 C   0  0  0  0  0  0  0  0  0  0  0  0
    3.9175    0.0546    0.0000 C   0  0  0  0  0  0  0  0  0  0  0  0
    4.3966   -0.7753    0.0000 C   0  0  0  0  0  0  0  0  0  0  0  0
    3.9175   -1.6052    0.0000 C   0  0  0  0  0  0  0  0  0  0  0  0
    2.9591   -1.6052    0.0000 C   0  0  0  0  0  0  0  0  0  0  0  0
    2.4800   -2.4352    0.0000 O   0  0  0  0  0  0  0  0  0  0  0  0
    1.5216   -2.4352    0.0000 C   0  0  0  0  0  0  0  0  0  0  0  0
    2.4800   -0.7753    0.0000 C   0  0  0  0  0  0  0  0  0  0  0  0
    0.5633   -0.7753    0.0000 N   0  0  0  0  0  0  0  0  0  0  0  0
    0.0000   -1.5506    0.0000 N   0  0  0  0  0  0  0  0  0  0  0  0
   -0.9114   -1.2545    0.0000 N   0  0  0  0  0  0  0  0  0  0  0  0
   -0.9114   -0.2961    0.0000 C   0  0  0  0  0  0  0  0  0  0  0  0
    0.0000    0.0000    0.0000 C   0  0  0  0  0  0  0  0  0  0  0  0
    0.2961    0.9114    0.0000 P   0  0  0  0  0  0  0  0  0  0  0  0
    1.2335    1.1107    0.0000 C   0  0  0  0  0  0  0  0  0  0  0  0
    1.8748    0.3985    0.0000 C   0  0  0  0  0  0  0  0  0  0  0  0
    1.5297    2.0221    0.0000 C   0  0  0  0  0  0  0  0  0  0  0  0
   -0.3451    1.6236    0.0000 C   0  0  0  0  0  0  0  0  0  0  0  0
   -0.0490    2.5350    0.0000 C   0  0  0  0  0  0  0  0  0  0  0  0
   -1.2825    1.4244    0.0000 C   0  0  0  0  0  0  0  0  0  0  0  0
  1  2  1  0  0  0  0
  2  3  1  0  0  0  0
  3 10  2  0  0  0  0
  3  4  1  0  0  0  0
  4  5  2  0  0  0  0
  5  6  1  0  0  0  0
  6  7  2  0  0  0  0
  7  8  1  0  0  0  0
  7 10  1  0  0  0  0
  8  9  1  0  0  0  0
 10 11  1  0  0  0  0
 11 15  1  0  0  0  0
 11 12  1  0  0  0  0
 12 13  2  0  0  0  0
 13 14  1  0  0  0  0
 14 15  2  0  0  0  0
 15 16  1  0  0  0  0
 16 17  1  0  0  0  0
 16 20  1  0  0  0  0
 17 18  1  0  0  0  0
 17 19  1  0  0  0  0
 20 21  1  0  0  0  0
 20 22  1  0  0  0  0
M  END
> <NMREDATA_VERSION>
1.1

> <NMREDATA_LEVEL>
0

> <NMREDATA_SOLVENT>
CDCl3

> <NMREDATA_FORMULA>
C16H24N3O2P

> <NMREDATA_SMILES>
COc1cccc(c1n1nncc1P(C(C)C)C(C)C)OC

> <NMREDATA_ASSIGNMENT>
P16, -20.89, 16

> <NMREDATA_1D_31P>
Larmor=121
-20.89, L=P16

$$$$
