
 OpenBabel06112616492D

 27 29  0  0  0  0  0  0  0  0999 V2000
   -0.7076   -0.9667    0.0000 C   0  0  0  0  0  0  0  0  0  0  0  0
    0.1295   -1.4500    0.0000 C   0  0  0  0  0  0  0  0  0  0  0  0
    0.1295   -3.3833    0.0000 C   0  0  0  0  0  0  0  0  0  0  0  0
    0.9667   -0.9667    0.0000 O   0  0  0  0  0  0  0  0  0  0  0  0
    0.9667    0.0000    0.0000 P   0  0  0  0  0  0  0  0  0  0  0  0
    1.9333    0.0000    0.0000 C   0  0  0  0  0  0  0  0  0  0  0  0
    2.4167    0.8372    0.0000 C   0  0  0  0  0  0  0  0  0  0  0  0
    1.9333    1.6743    0.0000 O   0  0  0  0  0  0  0  0  0  0  0  0
    3.3833    0.8372    0.0000 N   0  0  0  0  0  0  0  0  0  0  0  0
    3.8667    0.0000    0.0000 C   0  0  0  0  0  0  0  0  0  0  0  0
    4.8333    0.0000    0.0000 C   0  0  0  0  0  0  0  0  0  0  0  0
    5.3167    0.8372    0.0000 C   0  0  0  0  0  0  0  0  0  0  0  0
    4.8333    1.6743    0.0000 C   0  0  0  0  0  0  0  0  0  0  0  0
    3.8667    1.6743    0.0000 C   0  0  0  0  0  0  0  0  0  0  0  0
    3.3833   -0.8372    0.0000 N   0  0  0  0  0  0  0  0  0  0  0  0
    2.4167   -0.8372    0.0000 C   0  0  0  0  0  0  0  0  0  0  0  0
    1.9333   -1.6743    0.0000 C   0  0  0  0  0  0  0  0  0  0  0  0
    2.4167   -2.5115    0.0000 C   0  0  0  0  0  0  0  0  0  0  0  0
    1.9333   -3.3486    0.0000 C   0  0  0  0  0  0  0  0  0  0  0  0
    0.9667   -3.3486    0.0000 C   0  0  0  0  0  0  0  0  0  0  0  0
    0.4833   -2.5115    0.0000 C   0  0  0  0  0  0  0  0  0  0  0  0
    0.9667   -1.6743    0.0000 C   0  0  0  0  0  0  0  0  0  0  0  0
    0.9667    0.9667    0.0000 O   0  0  0  0  0  0  0  0  0  0  0  0
    0.1295    1.4500    0.0000 C   0  0  0  0  0  0  0  0  0  0  0  0
   -0.7076    0.9667    0.0000 C   0  0  0  0  0  0  0  0  0  0  0  0
    0.1295    2.4167    0.0000 C   0  0  0  0  0  0  0  0  0  0  0  0
    0.0000    0.0000    0.0000 O   0  0  0  0  0  0  0  0  0  0  0  0
  1  2  1  0  0  0  0
  2  3  1  0  0  0  0
  2  4  1  0  0  0  0
  4  5  1  0  0  0  0
  5  6  1  0  0  0  0
  5 23  1  0  0  0  0
  5 27  2  0  0  0  0
  6 16  2  0  0  0  0
  6  7  1  0  0  0  0
  7  8  2  0  0  0  0
  7  9  1  0  0  0  0
  9 14  1  0  0  0  0
  9 10  1  0  0  0  0
 10 11  1  0  0  0  0
 10 15  2  0  0  0  0
 11 12  2  0  0  0  0
 12 13  1  0  0  0  0
 13 14  2  0  0  0  0
 15 16  1  0  0  0  0
 16 17  1  0  0  0  0
 17 22  2  0  0  0  0
 17 18  1  0  0  0  0
 18 19  2  0  0  0  0
 19 20  1  0  0  0  0
 20 21  2  0  0  0  0
 21 22  1  0  0  0  0
 23 24  1  0  0  0  0
 24 25  1  0  0  0  0
 24 26  1  0  0  0  0
M  END
> <NMREDATA_VERSION>
1.1

> <NMREDATA_LEVEL>
0

> <NMREDATA_SOLVENT>
CDCl3

> <NMREDATA_FORMULA>
C20H23N2O4P

> <NMREDATA_SMILES>
CC(OP(=O)(c1c(nc2n(c1=O)cccc2)c1ccccc1)OC(C)C)C

> <NMREDATA_ASSIGNMENT>
P5, 12.56, 5

> <NMREDATA_1D_31P>
Larmor=162
12.56, L=P5

$$$$
