
 OpenBabel06112616462D

 32 35  0  0  1  0  0  0  0  0999 V2000
    6.0579   -1.1346    0.0000 S   0  0  0  0  0  0  0  0  0  0  0  0
    6.5993   -1.8798    0.0000 C   0  0  0  0  0  0  0  0  0  0  0  0
    5.1419   -1.2309    0.0000 C   0  0  0  0  0  0  0  0  0  0  0  0
    4.6814   -2.0286    0.0000 N   0  0  0  0  0  0  0  0  0  0  0  0
    3.7805   -1.8371    0.0000 C   0  0  2  0  0  0  0  0  0  0  0  0
    3.8768   -2.7531    0.0000 C   0  0  0  0  0  0  0  0  0  0  0  0
    4.6744   -3.2136    0.0000 O   0  0  0  0  0  0  0  0  0  0  0  0
    3.0353   -3.1277    0.0000 N   0  0  0  0  0  0  0  0  0  0  0  0
    2.8438   -4.0286    0.0000 C   0  0  0  0  0  0  0  0  0  0  0  0
    3.5283   -4.6449    0.0000 C   0  0  0  0  0  0  0  0  0  0  0  0
    4.4043   -4.3603    0.0000 C   0  0  0  0  0  0  0  0  0  0  0  0
    5.0888   -4.9766    0.0000 C   0  0  0  0  0  0  0  0  0  0  0  0
    4.8973   -5.8775    0.0000 C   0  0  0  0  0  0  0  0  0  0  0  0
    4.0213   -6.1622    0.0000 C   0  0  0  0  0  0  0  0  0  0  0  0
    3.3368   -5.5458    0.0000 C   0  0  0  0  0  0  0  0  0  0  0  0
    2.4190   -2.4432    0.0000 C   0  0  0  0  0  0  0  0  0  0  0  0
    1.4980   -2.4432    0.0000 C   0  0  0  0  0  0  0  0  0  0  0  0
    1.0375   -1.6456    0.0000 C   0  0  0  0  0  0  0  0  0  0  0  0
    1.4980   -0.8479    0.0000 C   0  0  0  0  0  0  0  0  0  0  0  0
    2.4190   -0.8479    0.0000 C   0  0  0  0  0  0  0  0  0  0  0  0
    2.8796   -1.6456    0.0000 C   0  0  0  0  0  0  0  0  0  0  0  0
    3.6842   -0.9211    0.0000 C   0  0  1  0  0  0  0  0  0  0  0  0
    3.2237   -0.1234    0.0000 C   0  0  0  0  0  0  0  0  0  0  0  0
    0.0000   -0.9211    0.0000 P   0  0  0  0  0  0  0  0  0  0  0  0
    0.0000   -1.8421    0.0000 O   0  0  0  0  0  0  0  0  0  0  0  0
   -0.9211   -0.9211    0.0000 O   0  0  0  0  0  0  0  0  0  0  0  0
   -1.3816   -0.1234    0.0000 C   0  0  0  0  0  0  0  0  0  0  0  0
   -0.9211    0.6743    0.0000 C   0  0  0  0  0  0  0  0  0  0  0  0
    0.0000    0.0000    0.0000 O   0  0  0  0  0  0  0  0  0  0  0  0
    0.7977    0.4605    0.0000 C   0  0  0  0  0  0  0  0  0  0  0  0
    1.5953    0.0000    0.0000 C   0  0  0  0  0  0  0  0  0  0  0  0
    4.5256   -0.5464    0.0000 O   0  0  0  0  0  0  0  0  0  0  0  0
  1  2  1  0  0  0  0
  1  3  1  0  0  0  0
  3 32  1  0  0  0  0
  3  4  2  0  0  0  0
  5  4  1  6  0  0  0
  5 21  1  0  0  0  0
  5  6  1  0  0  0  0
  5 22  1  0  0  0  0
  6  7  2  0  0  0  0
  6  8  1  0  0  0  0
  8  9  1  0  0  0  0
  8 16  1  0  0  0  0
  9 10  1  0  0  0  0
 10 15  2  0  0  0  0
 10 11  1  0  0  0  0
 11 12  2  0  0  0  0
 12 13  1  0  0  0  0
 13 14  2  0  0  0  0
 14 15  1  0  0  0  0
 16 21  2  0  0  0  0
 16 17  1  0  0  0  0
 17 18  2  0  0  0  0
 18 19  1  0  0  0  0
 19 20  2  0  0  0  0
 20 21  1  0  0  0  0
 22 23  1  6  0  0  0
 22 24  1  0  0  0  0
 22 32  1  0  0  0  0
 24 25  2  0  0  0  0
 24 26  1  0  0  0  0
 24 29  1  0  0  0  0
 26 27  1  0  0  0  0
 27 28  1  0  0  0  0
 29 30  1  0  0  0  0
 30 31  1  0  0  0  0
M  END
> <NMREDATA_VERSION>
1.1

> <NMREDATA_LEVEL>
0

> <NMREDATA_SOLVENT>
CDCl3

> <NMREDATA_FORMULA>
C23H27N2O5PS

> <NMREDATA_SMILES>
CCOP(=O)([C@@]1(C)OC(=N[C@@]21c1ccccc1N(C2=O)Cc1ccccc1)SC)OCC

> <NMREDATA_ASSIGNMENT>
P24, 16.90, 24

> <NMREDATA_1D_31P>
Larmor=162
16.90, L=P24

$$$$
