
 OpenBabel06112616452D

 18 18  0  0  1  0  0  0  0  0999 V2000
   -3.1906   -1.5000    0.0000 C   0  0  1  0  0  0  0  0  0  0  0  0
   -4.0916   -1.9339    0.0000 C   0  0  0  0  0  0  0  0  0  0  0  0
   -4.6549   -2.7601    0.0000 C   0  0  0  0  0  0  0  0  0  0  0  0
   -3.6577   -2.8349    0.0000 C   0  0  0  0  0  0  0  0  0  0  0  0
   -4.9179   -1.3706    0.0000 C   0  0  0  0  0  0  0  0  0  0  0  0
   -3.1906   -0.5000    0.0000 C   0  0  0  0  0  0  0  0  0  0  0  0
   -2.4088    0.1235    0.0000 C   0  0  0  0  0  0  0  0  0  0  0  0
   -1.4339   -0.0990    0.0000 C   0  0  0  0  0  0  0  0  0  0  0  0
   -0.8104    0.6828    0.0000 O   0  0  0  0  0  0  0  0  0  0  0  0
   -1.0000   -1.0000    0.0000 C   0  0  2  0  0  0  0  0  0  0  0  0
    0.0000   -1.0000    0.0000 P   0  0  0  0  0  0  0  0  0  0  0  0
    0.0000   -2.0000    0.0000 O   0  0  0  0  0  0  0  0  0  0  0  0
    1.0000   -1.0000    0.0000 O   0  0  0  0  0  0  0  0  0  0  0  0
    1.5000   -0.1340    0.0000 C   0  0  0  0  0  0  0  0  0  0  0  0
    0.0000    0.0000    0.0000 O   0  0  0  0  0  0  0  0  0  0  0  0
    0.8660    0.5000    0.0000 C   0  0  0  0  0  0  0  0  0  0  0  0
   -1.4339   -1.9010    0.0000 C   0  0  0  0  0  0  0  0  0  0  0  0
   -2.4088   -2.1235    0.0000 C   0  0  0  0  0  0  0  0  0  0  0  0
  1  2  1  1  0  0  0
  1 18  1  0  0  0  0
  1  6  1  0  0  0  0
  2  3  1  0  0  0  0
  2  4  1  0  0  0  0
  2  5  1  0  0  0  0
  6  7  1  0  0  0  0
  7  8  1  0  0  0  0
  8  9  2  0  0  0  0
  8 10  1  0  0  0  0
 10 11  1  6  0  0  0
 10 17  1  0  0  0  0
 11 12  2  0  0  0  0
 11 13  1  0  0  0  0
 11 15  1  0  0  0  0
 13 14  1  0  0  0  0
 15 16  1  0  0  0  0
 17 18  1  0  0  0  0
M  END
> <NMREDATA_VERSION>
1.1

> <NMREDATA_LEVEL>
0

> <NMREDATA_SOLVENT>
CDCl3

> <NMREDATA_FORMULA>
C13H25O4P

> <NMREDATA_SMILES>
COP(=O)([C@@H]1CC[C@H](CCC1=O)C(C)(C)C)OC

> <NMREDATA_ASSIGNMENT>
P11, 25.09, 11

> <NMREDATA_1D_31P>
Larmor=243
25.09, L=P11

$$$$
