
 OpenBabel06112616492D

 35 39  0  0  1  0  0  0  0  0999 V2000
    3.5081    0.4875    0.0000 C    0  0  0  0  0  0  0  0  0  0  0  0
    3.5081   -0.4875    0.0000 O    0  0  0  0  0  0  0  0  0  0  0  0
    2.6637   -0.9750    0.0000 C    0  0  0  0  0  0  0  0  0  0  0  0
    1.8194   -0.4875    0.0000 O    0  0  0  0  0  0  0  0  0  0  0  0
    2.6637   -1.9500    0.0000 C    0  0  3  0  0  0  0  0  0  0  0  0
    3.5081   -2.4375    0.0000 C    0  0  0  0  0  0  0  0  0  0  0  0
    3.5081   -3.4125    0.0000 C    0  0  0  0  0  0  0  0  0  0  0  0
    4.3525   -3.9000    0.0000 C    0  0  0  0  0  0  0  0  0  0  0  0
    5.1969   -3.4125    0.0000 C    0  0  0  0  0  0  0  0  0  0  0  0
    5.1969   -2.4375    0.0000 C    0  0  0  0  0  0  0  0  0  0  0  0
    4.3525   -1.9500    0.0000 C    0  0  0  0  0  0  0  0  0  0  0  0
    4.3525   -0.9750    0.0000 Cl   0  0  0  0  0  0  0  0  0  0  0  0
    1.8194   -2.4375    0.0000 N    0  0  0  0  0  0  0  0  0  0  0  0
    1.8194   -3.4125    0.0000 C    0  0  0  0  0  0  0  0  0  0  0  0
    0.9750   -3.9000    0.0000 C    0  0  0  0  0  0  0  0  0  0  0  0
    0.1306   -3.4125    0.0000 C    0  0  0  0  0  0  0  0  0  0  0  0
   -0.7967   -3.7138    0.0000 S    0  0  0  0  0  0  0  0  0  0  0  0
   -1.3697   -2.9250    0.0000 C    0  0  0  0  0  0  0  0  0  0  0  0
   -0.7967   -2.1362    0.0000 C    0  0  0  0  0  0  0  0  0  0  0  0
    0.1306   -2.4375    0.0000 C    0  0  0  0  0  0  0  0  0  0  0  0
    0.9750   -1.9500    0.0000 C    0  0  2  0  0  0  0  0  0  0  0  0
    0.9750    0.0000    0.0000 P    0  0  0  0  0  0  0  0  0  0  0  0
    1.9500    0.0000    0.0000 O    0  0  0  0  0  0  0  0  0  0  0  0
    0.9750    0.9750    0.0000 C    0  0  0  0  0  0  0  0  0  0  0  0
    0.1306    1.4625    0.0000 C    0  0  0  0  0  0  0  0  0  0  0  0
    0.1306    2.4375    0.0000 C    0  0  0  0  0  0  0  0  0  0  0  0
    0.9750    2.9250    0.0000 C    0  0  0  0  0  0  0  0  0  0  0  0
    1.8194    2.4375    0.0000 C    0  0  0  0  0  0  0  0  0  0  0  0
    1.8194    1.4625    0.0000 C    0  0  0  0  0  0  0  0  0  0  0  0
    0.0000    0.0000    0.0000 C    0  0  0  0  0  0  0  0  0  0  0  0
   -0.4875   -0.8444    0.0000 C    0  0  0  0  0  0  0  0  0  0  0  0
   -1.4625   -0.8444    0.0000 C    0  0  0  0  0  0  0  0  0  0  0  0
   -1.9500    0.0000    0.0000 C    0  0  0  0  0  0  0  0  0  0  0  0
   -1.4625    0.8444    0.0000 C    0  0  0  0  0  0  0  0  0  0  0  0
   -0.4875    0.8444    0.0000 C    0  0  0  0  0  0  0  0  0  0  0  0
  1  2  1  0  0  0  0
  2  3  1  0  0  0  0
  3  4  2  0  0  0  0
  3  5  1  0  0  0  0
  5  6  1  0  0  0  0
  5 13  1  0  0  0  0
  6 11  2  0  0  0  0
  6  7  1  0  0  0  0
  7  8  2  0  0  0  0
  8  9  1  0  0  0  0
  9 10  2  0  0  0  0
 10 11  1  0  0  0  0
 11 12  1  0  0  0  0
 13 21  1  0  0  0  0
 13 14  1  0  0  0  0
 14 15  1  0  0  0  0
 15 16  1  0  0  0  0
 16 20  2  0  0  0  0
 16 17  1  0  0  0  0
 17 18  1  0  0  0  0
 18 19  2  0  0  0  0
 19 20  1  0  0  0  0
 20 21  1  0  0  0  0
 21 22  1  6  0  0  0
 22 23  2  0  0  0  0
 22 24  1  0  0  0  0
 22 30  1  0  0  0  0
 24 29  2  0  0  0  0
 24 25  1  0  0  0  0
 25 26  2  0  0  0  0
 26 27  1  0  0  0  0
 27 28  2  0  0  0  0
 28 29  1  0  0  0  0
 30 35  2  0  0  0  0
 30 31  1  0  0  0  0
 31 32  2  0  0  0  0
 32 33  1  0  0  0  0
 33 34  2  0  0  0  0
 34 35  1  0  0  0  0
M  END
> <NMREDATA_VERSION>
1.1

> <NMREDATA_LEVEL>
0

> <NMREDATA_SOLVENT>
CDCl3

> <NMREDATA_FORMULA>
C28H25ClNO3PS

> <NMREDATA_SMILES>
COC(=O)C(N1CCc2c([C@@H]1P(=O)(c1ccccc1)c1ccccc1)ccs2)c1ccccc1Cl

> <NMREDATA_ASSIGNMENT>
P22, 29.95, 22

> <NMREDATA_1D_31P>
Larmor=162
29.95, L=P22

$$$$
