
 OpenBabel06112616462D

 31 34  0  0  0  0  0  0  0  0999 V2000
   -0.7384    2.2137    0.0000 C   0  0  0  0  0  0  0  0  0  0  0  0
   -0.9403    1.2635    0.0000 F   0  0  0  0  0  0  0  0  0  0  0  0
   -1.0385    3.1375    0.0000 F   0  0  0  0  0  0  0  0  0  0  0  0
   -1.6886    2.4156    0.0000 F   0  0  0  0  0  0  0  0  0  0  0  0
    0.1855    2.5138    0.0000 C   0  0  0  0  0  0  0  0  0  0  0  0
    0.4857    3.4377    0.0000 C   0  0  0  0  0  0  0  0  0  0  0  0
   -0.0853    4.2236    0.0000 F   0  0  0  0  0  0  0  0  0  0  0  0
    1.4571    3.4377    0.0000 O   0  0  0  0  0  0  0  0  0  0  0  0
    1.7573    2.5138    0.0000 C   0  0  0  0  0  0  0  0  0  0  0  0
    2.6812    2.2137    0.0000 C   0  0  0  0  0  0  0  0  0  0  0  0
    3.4031    2.8637    0.0000 C   0  0  0  0  0  0  0  0  0  0  0  0
    4.3270    2.5635    0.0000 C   0  0  0  0  0  0  0  0  0  0  0  0
    4.5290    1.6133    0.0000 C   0  0  0  0  0  0  0  0  0  0  0  0
    5.4529    1.3131    0.0000 F   0  0  0  0  0  0  0  0  0  0  0  0
    3.8071    0.9633    0.0000 C   0  0  0  0  0  0  0  0  0  0  0  0
    2.8832    1.2635    0.0000 C   0  0  0  0  0  0  0  0  0  0  0  0
    0.9714    1.9429    0.0000 C   0  0  0  0  0  0  0  0  0  0  0  0
    0.9714    0.0000    0.0000 P   0  0  0  0  0  0  0  0  0  0  0  0
    1.9429    0.0000    0.0000 O   0  0  0  0  0  0  0  0  0  0  0  0
    0.9714   -0.9714    0.0000 C   0  0  0  0  0  0  0  0  0  0  0  0
    0.1301   -1.4571    0.0000 C   0  0  0  0  0  0  0  0  0  0  0  0
    0.1301   -2.4286    0.0000 C   0  0  0  0  0  0  0  0  0  0  0  0
    0.9714   -2.9143    0.0000 C   0  0  0  0  0  0  0  0  0  0  0  0
    1.8127   -2.4286    0.0000 C   0  0  0  0  0  0  0  0  0  0  0  0
    1.8127   -1.4571    0.0000 C   0  0  0  0  0  0  0  0  0  0  0  0
    0.0000    0.0000    0.0000 C   0  0  0  0  0  0  0  0  0  0  0  0
   -0.4857    0.8413    0.0000 C   0  0  0  0  0  0  0  0  0  0  0  0
   -1.4571    0.8413    0.0000 C   0  0  0  0  0  0  0  0  0  0  0  0
   -1.9429    0.0000    0.0000 C   0  0  0  0  0  0  0  0  0  0  0  0
   -1.4571   -0.8413    0.0000 C   0  0  0  0  0  0  0  0  0  0  0  0
   -0.4857   -0.8413    0.0000 C   0  0  0  0  0  0  0  0  0  0  0  0
  1  2  1  0  0  0  0
  1  3  1  0  0  0  0
  1  4  1  0  0  0  0
  1  5  1  0  0  0  0
  5 17  1  0  0  0  0
  5  6  2  0  0  0  0
  6  7  1  0  0  0  0
  6  8  1  0  0  0  0
  8  9  1  0  0  0  0
  9 10  1  0  0  0  0
  9 17  2  0  0  0  0
 10 16  2  0  0  0  0
 10 11  1  0  0  0  0
 11 12  2  0  0  0  0
 12 13  1  0  0  0  0
 13 14  1  0  0  0  0
 13 15  2  0  0  0  0
 15 16  1  0  0  0  0
 17 18  1  0  0  0  0
 18 19  2  0  0  0  0
 18 20  1  0  0  0  0
 18 26  1  0  0  0  0
 20 25  2  0  0  0  0
 20 21  1  0  0  0  0
 21 22  2  0  0  0  0
 22 23  1  0  0  0  0
 23 24  2  0  0  0  0
 24 25  1  0  0  0  0
 26 31  2  0  0  0  0
 26 27  1  0  0  0  0
 27 28  2  0  0  0  0
 28 29  1  0  0  0  0
 29 30  2  0  0  0  0
 30 31  1  0  0  0  0
M  END
> <NMREDATA_VERSION>
1.1

> <NMREDATA_LEVEL>
0

> <NMREDATA_SOLVENT>
CDCl3

> <NMREDATA_FORMULA>
C23H14F5O2P

> <NMREDATA_SMILES>
Fc1ccc(cc1)c1oc(c(c1P(=O)(c1ccccc1)c1ccccc1)C(F)(F)F)F

> <NMREDATA_ASSIGNMENT>
P18, 18.70, 18

> <NMREDATA_1D_31P>
Larmor=162
18.70, L=P18

$$$$
