
 OpenBabel06112616492D

 39 42  0  0  1  0  0  0  0  0999 V2000
    2.9302   -2.6685    0.0000 C   0  0  0  0  0  0  0  0  0  0  0  0
    3.4186   -1.8226    0.0000 C   0  0  0  0  0  0  0  0  0  0  0  0
    2.9302   -0.9767    0.0000 C   0  0  0  0  0  0  0  0  0  0  0  0
    1.9535   -0.9767    0.0000 C   0  0  2  0  0  0  0  0  0  0  0  0
    1.9535    0.0000    0.0000 C   0  0  0  0  0  0  0  0  0  0  0  0
    2.7994    0.4884    0.0000 C   0  0  0  0  0  0  0  0  0  0  0  0
    2.7994    1.4651    0.0000 C   0  0  0  0  0  0  0  0  0  0  0  0
    3.6453    1.9535    0.0000 C   0  0  0  0  0  0  0  0  0  0  0  0
    4.6220    1.9535    0.0000 C   0  0  0  0  0  0  0  0  0  0  0  0
    4.1336    1.1076    0.0000 C   0  0  0  0  0  0  0  0  0  0  0  0
    3.6453    2.9302    0.0000 C   0  0  0  0  0  0  0  0  0  0  0  0
    1.9535    1.9535    0.0000 C   0  0  0  0  0  0  0  0  0  0  0  0
    1.9535    2.9302    0.0000 O   0  0  0  0  0  0  0  0  0  0  0  0
    1.1076    1.4651    0.0000 C   0  0  0  0  0  0  0  0  0  0  0  0
    0.2617    1.9535    0.0000 C   0  0  0  0  0  0  0  0  0  0  0  0
   -0.2267    2.7994    0.0000 C   0  0  0  0  0  0  0  0  0  0  0  0
    0.7501    2.7994    0.0000 C   0  0  0  0  0  0  0  0  0  0  0  0
   -0.5842    1.4651    0.0000 C   0  0  0  0  0  0  0  0  0  0  0  0
    1.1076    0.4884    0.0000 C   0  0  0  0  0  0  0  0  0  0  0  0
    0.0000   -0.9767    0.0000 P   0  0  0  0  0  0  0  0  0  0  0  0
    0.0000   -1.9535    0.0000 C   0  0  0  0  0  0  0  0  0  0  0  0
   -0.8459   -2.4419    0.0000 C   0  0  0  0  0  0  0  0  0  0  0  0
   -0.8459   -3.4186    0.0000 C   0  0  0  0  0  0  0  0  0  0  0  0
    0.0000   -3.9070    0.0000 C   0  0  0  0  0  0  0  0  0  0  0  0
    0.8459   -3.4186    0.0000 C   0  0  0  0  0  0  0  0  0  0  0  0
    0.8459   -2.4419    0.0000 C   0  0  0  0  0  0  0  0  0  0  0  0
   -0.9767   -0.9767    0.0000 C   0  0  0  0  0  0  0  0  0  0  0  0
   -1.4651   -0.1309    0.0000 C   0  0  0  0  0  0  0  0  0  0  0  0
   -2.4419   -0.1309    0.0000 C   0  0  0  0  0  0  0  0  0  0  0  0
   -2.9302   -0.9767    0.0000 C   0  0  0  0  0  0  0  0  0  0  0  0
   -2.4419   -1.8226    0.0000 C   0  0  0  0  0  0  0  0  0  0  0  0
   -1.4651   -1.8226    0.0000 C   0  0  0  0  0  0  0  0  0  0  0  0
    0.0000    0.0000    0.0000 O   0  0  0  0  0  0  0  0  0  0  0  0
    1.9535   -1.9535    0.0000 C   0  0  0  0  0  0  0  0  0  0  0  0
    1.9535   -2.9302    0.0000 N   0  0  0  0  0  0  0  0  0  0  0  0
    3.4186   -0.1309    0.0000 C   0  0  0  0  0  0  0  0  0  0  0  0
    4.3953   -0.1309    0.0000 C   0  0  0  0  0  0  0  0  0  0  0  0
    4.8837   -0.9767    0.0000 C   0  0  0  0  0  0  0  0  0  0  0  0
    4.3953   -1.8226    0.0000 C   0  0  0  0  0  0  0  0  0  0  0  0
  1  2  1  0  0  0  0
  2 39  2  0  0  0  0
  2  3  1  0  0  0  0
  3  4  1  0  0  0  0
  3 36  2  0  0  0  0
  4  5  1  0  0  0  0
  4 20  1  0  0  0  0
  4 34  1  6  0  0  0
  5 19  2  0  0  0  0
  5  6  1  0  0  0  0
  6  7  2  0  0  0  0
  7  8  1  0  0  0  0
  7 12  1  0  0  0  0
  8  9  1  0  0  0  0
  8 10  1  0  0  0  0
  8 11  1  0  0  0  0
 12 13  1  0  0  0  0
 12 14  2  0  0  0  0
 14 15  1  0  0  0  0
 14 19  1  0  0  0  0
 15 16  1  0  0  0  0
 15 17  1  0  0  0  0
 15 18  1  0  0  0  0
 20 21  1  0  0  0  0
 20 27  1  0  0  0  0
 20 33  2  0  0  0  0
 21 26  2  0  0  0  0
 21 22  1  0  0  0  0
 22 23  2  0  0  0  0
 23 24  1  0  0  0  0
 24 25  2  0  0  0  0
 25 26  1  0  0  0  0
 27 32  2  0  0  0  0
 27 28  1  0  0  0  0
 28 29  2  0  0  0  0
 29 30  1  0  0  0  0
 30 31  2  0  0  0  0
 31 32  1  0  0  0  0
 34 35  3  0  0  0  0
 36 37  1  0  0  0  0
 37 38  2  0  0  0  0
 38 39  1  0  0  0  0
M  END
> <NMREDATA_VERSION>
1.1

> <NMREDATA_LEVEL>
0

> <NMREDATA_SOLVENT>
CDCl3

> <NMREDATA_FORMULA>
C35H38NO2P

> <NMREDATA_SMILES>
N#C[C@@](P(=O)(c1ccccc1)c1ccccc1)(c1ccccc1C)c1cc(c(c(c1)C(C)(C)C)O)C(C)(C)C

> <NMREDATA_ASSIGNMENT>
P20, 33.21, 20

> <NMREDATA_1D_31P>
Larmor=162
33.21, L=P20

$$$$
