
 OpenBabel06112616482D

 43 48  0  0  1  0  0  0  0  0999 V2000
    1.6628    0.0000    0.0000 C   0  0  0  0  0  0  0  0  0  0  0  0
    0.8314   -0.4800    0.0000 C   0  0  0  0  0  0  0  0  0  0  0  0
    0.8314   -1.4400    0.0000 C   0  0  0  0  0  0  0  0  0  0  0  0
    0.0000   -1.9200    0.0000 C   0  0  0  0  0  0  0  0  0  0  0  0
    0.0000   -2.8800    0.0000 C   0  0  0  0  0  0  0  0  0  0  0  0
   -0.8314   -1.4400    0.0000 C   0  0  0  0  0  0  0  0  0  0  0  0
   -2.4942   -2.4000    0.0000 C   0  0  0  0  0  0  0  0  0  0  0  0
   -2.4942   -3.3600    0.0000 C   0  0  0  0  0  0  0  0  0  0  0  0
   -3.3255   -3.8400    0.0000 C   0  0  0  0  0  0  0  0  0  0  0  0
   -4.1569   -3.3600    0.0000 C   0  0  0  0  0  0  0  0  0  0  0  0
   -4.1569   -2.4000    0.0000 C   0  0  0  0  0  0  0  0  0  0  0  0
   -4.9883   -1.9200    0.0000 C   0  0  1  0  0  0  0  0  0  0  0  0
   -4.9883   -0.9600    0.0000 C   0  0  0  0  0  0  0  0  0  0  0  0
   -5.8197   -0.4800    0.0000 C   0  0  0  0  0  0  0  0  0  0  0  0
   -6.6511   -0.9600    0.0000 C   0  0  1  0  0  0  0  0  0  0  0  0
   -7.4825   -0.4800    0.0000 C   0  0  0  0  0  0  0  0  0  0  0  0
   -7.4825    0.4800    0.0000 C   0  0  0  0  0  0  0  0  0  0  0  0
   -8.3138    0.9600    0.0000 C   0  0  0  0  0  0  0  0  0  0  0  0
   -9.1452    0.4800    0.0000 C   0  0  0  0  0  0  0  0  0  0  0  0
   -9.1452   -0.4800    0.0000 C   0  0  0  0  0  0  0  0  0  0  0  0
   -8.3138   -0.9600    0.0000 C   0  0  0  0  0  0  0  0  0  0  0  0
   -8.3138   -2.8800    0.0000 P   0  0  0  0  0  0  0  0  0  0  0  0
   -7.4825   -3.3600    0.0000 C   0  0  0  0  0  0  0  0  0  0  0  0
   -7.4825   -4.3200    0.0000 C   0  0  0  0  0  0  0  0  0  0  0  0
   -6.6511   -4.8000    0.0000 C   0  0  0  0  0  0  0  0  0  0  0  0
   -5.8197   -4.3200    0.0000 C   0  0  0  0  0  0  0  0  0  0  0  0
   -5.8197   -3.3600    0.0000 C   0  0  0  0  0  0  0  0  0  0  0  0
   -6.6511   -2.8800    0.0000 C   0  0  0  0  0  0  0  0  0  0  0  0
   -9.1452   -3.3600    0.0000 C   0  0  0  0  0  0  0  0  0  0  0  0
   -9.9766   -2.8800    0.0000 C   0  0  0  0  0  0  0  0  0  0  0  0
  -10.8080   -3.3600    0.0000 C   0  0  0  0  0  0  0  0  0  0  0  0
  -10.8080   -4.3200    0.0000 C   0  0  0  0  0  0  0  0  0  0  0  0
   -9.9766   -4.8000    0.0000 C   0  0  0  0  0  0  0  0  0  0  0  0
   -9.1452   -4.3200    0.0000 C   0  0  0  0  0  0  0  0  0  0  0  0
   -6.6511   -1.9200    0.0000 C   0  0  0  0  0  0  0  0  0  0  0  0
   -5.8197   -2.4000    0.0000 C   0  0  0  0  0  0  0  0  0  0  0  0
   -3.3255   -1.9200    0.0000 C   0  0  0  0  0  0  0  0  0  0  0  0
   -3.3255   -0.9600    0.0000 C   0  0  0  0  0  0  0  0  0  0  0  0
   -2.4942   -0.4800    0.0000 O   0  0  0  0  0  0  0  0  0  0  0  0
   -4.1569   -0.4800    0.0000 O   0  0  0  0  0  0  0  0  0  0  0  0
   -0.8314   -0.4800    0.0000 C   0  0  0  0  0  0  0  0  0  0  0  0
   -1.6628    0.0000    0.0000 C   0  0  0  0  0  0  0  0  0  0  0  0
    0.0000    0.0000    0.0000 C   0  0  0  0  0  0  0  0  0  0  0  0
  1  2  1  0  0  0  0
  2 43  2  0  0  0  0
  2  3  1  0  0  0  0
  3  4  2  0  0  0  0
  4  5  1  0  0  0  0
  4  6  1  0  0  0  0
  6  7  1  0  0  0  0
  6 41  2  0  0  0  0
  7 37  2  0  0  0  0
  7  8  1  0  0  0  0
  8  9  2  0  0  0  0
  9 10  1  0  0  0  0
 10 11  2  0  0  0  0
 11 37  1  0  0  0  0
 12 11  1  6  0  0  0
 12 13  1  0  0  0  0
 12 36  1  0  0  0  0
 13 14  2  0  0  0  0
 14 15  1  0  0  0  0
 15 16  1  6  0  0  0
 15 35  1  0  0  0  0
 16 21  2  0  0  0  0
 16 17  1  0  0  0  0
 17 18  2  0  0  0  0
 18 19  1  0  0  0  0
 19 20  2  0  0  0  0
 20 21  1  0  0  0  0
 21 22  1  0  0  0  0
 22 23  1  0  0  0  0
 22 29  1  0  0  0  0
 23 28  2  0  0  0  0
 23 24  1  0  0  0  0
 24 25  2  0  0  0  0
 25 26  1  0  0  0  0
 26 27  2  0  0  0  0
 27 28  1  0  0  0  0
 29 34  2  0  0  0  0
 29 30  1  0  0  0  0
 30 31  2  0  0  0  0
 31 32  1  0  0  0  0
 32 33  2  0  0  0  0
 33 34  1  0  0  0  0
 35 36  2  0  0  0  0
 37 38  1  0  0  0  0
 38 39  2  0  0  0  0
 38 40  1  0  0  0  0
 41 42  1  0  0  0  0
 41 43  1  0  0  0  0
M  END
> <NMREDATA_VERSION>
1.1

> <NMREDATA_LEVEL>
0

> <NMREDATA_SOLVENT>
C6D6

> <NMREDATA_FORMULA>
C40H35O2P

> <NMREDATA_SMILES>
Cc1cc(C)c(c(c1)C)c1cccc(c1C(=O)O)[C@@H]1C=C[C@@H](C=C1)c1ccccc1P(c1ccccc1)c1ccccc1

> <NMREDATA_ASSIGNMENT>
P22, -14.40, 22

> <NMREDATA_1D_31P>
Larmor=162
-14.40, L=P22

$$$$
