
 OpenBabel06112616462D

 34 38  0  0  1  0  0  0  0  0999 V2000
    3.5058   -2.4359    0.0000 C   0  0  0  0  0  0  0  0  0  0  0  0
    4.3496   -2.9231    0.0000 O   0  0  0  0  0  0  0  0  0  0  0  0
    4.3496   -3.8974    0.0000 C   0  0  0  0  0  0  0  0  0  0  0  0
    5.1935   -4.3846    0.0000 C   0  0  0  0  0  0  0  0  0  0  0  0
    2.6620   -2.9231    0.0000 C   0  0  0  0  0  0  0  0  0  0  0  0
    1.8182   -2.4359    0.0000 C   0  0  0  0  0  0  0  0  0  0  0  0
    1.8182   -1.4615    0.0000 C   0  0  0  0  0  0  0  0  0  0  0  0
    0.9744   -0.9744    0.0000 C   0  0  1  0  0  0  0  0  0  0  0  0
   -0.7133   -1.9487    0.0000 C   0  0  0  0  0  0  0  0  0  0  0  0
   -1.5571   -1.4615    0.0000 C   0  0  0  0  0  0  0  0  0  0  0  0
   -2.4009   -1.9487    0.0000 C   0  0  0  0  0  0  0  0  0  0  0  0
   -2.4009   -2.9231    0.0000 C   0  0  0  0  0  0  0  0  0  0  0  0
   -1.5571   -3.4103    0.0000 C   0  0  0  0  0  0  0  0  0  0  0  0
   -0.7133   -2.9231    0.0000 C   0  0  0  0  0  0  0  0  0  0  0  0
    0.1305   -3.4103    0.0000 O   0  0  0  0  0  0  0  0  0  0  0  0
   -3.3276   -3.2242    0.0000 O   0  0  0  0  0  0  0  0  0  0  0  0
   -3.9003   -2.4359    0.0000 C   0  0  0  0  0  0  0  0  0  0  0  0
   -3.3276   -1.6476    0.0000 O   0  0  0  0  0  0  0  0  0  0  0  0
    0.9744    0.0000    0.0000 P   0  0  0  0  0  0  0  0  0  0  0  0
    1.9487    0.0000    0.0000 O   0  0  0  0  0  0  0  0  0  0  0  0
    0.9744    0.9744    0.0000 C   0  0  0  0  0  0  0  0  0  0  0  0
    0.1305    1.4615    0.0000 C   0  0  0  0  0  0  0  0  0  0  0  0
    0.1305    2.4359    0.0000 C   0  0  0  0  0  0  0  0  0  0  0  0
    0.9744    2.9231    0.0000 C   0  0  0  0  0  0  0  0  0  0  0  0
    1.8182    2.4359    0.0000 C   0  0  0  0  0  0  0  0  0  0  0  0
    1.8182    1.4615    0.0000 C   0  0  0  0  0  0  0  0  0  0  0  0
    0.0000    0.0000    0.0000 C   0  0  0  0  0  0  0  0  0  0  0  0
   -0.4872   -0.8438    0.0000 C   0  0  0  0  0  0  0  0  0  0  0  0
   -1.4615   -0.8438    0.0000 C   0  0  0  0  0  0  0  0  0  0  0  0
   -1.9487    0.0000    0.0000 C   0  0  0  0  0  0  0  0  0  0  0  0
   -1.4615    0.8438    0.0000 C   0  0  0  0  0  0  0  0  0  0  0  0
   -0.4872    0.8438    0.0000 C   0  0  0  0  0  0  0  0  0  0  0  0
    2.6620   -0.9744    0.0000 C   0  0  0  0  0  0  0  0  0  0  0  0
    3.5058   -1.4615    0.0000 C   0  0  0  0  0  0  0  0  0  0  0  0
  1 34  2  0  0  0  0
  1  2  1  0  0  0  0
  1  5  1  0  0  0  0
  2  3  1  0  0  0  0
  3  4  1  0  0  0  0
  5  6  2  0  0  0  0
  6  7  1  0  0  0  0
  7  8  1  0  0  0  0
  7 33  2  0  0  0  0
  8  9  1  0  0  0  0
  8 19  1  1  0  0  0
  9 14  2  0  0  0  0
  9 10  1  0  0  0  0
 10 11  2  0  0  0  0
 11 18  1  0  0  0  0
 11 12  1  0  0  0  0
 12 13  2  0  0  0  0
 12 16  1  0  0  0  0
 13 14  1  0  0  0  0
 14 15  1  0  0  0  0
 16 17  1  0  0  0  0
 17 18  1  0  0  0  0
 19 20  2  0  0  0  0
 19 21  1  0  0  0  0
 19 27  1  0  0  0  0
 21 26  2  0  0  0  0
 21 22  1  0  0  0  0
 22 23  2  0  0  0  0
 23 24  1  0  0  0  0
 24 25  2  0  0  0  0
 25 26  1  0  0  0  0
 27 32  2  0  0  0  0
 27 28  1  0  0  0  0
 28 29  2  0  0  0  0
 29 30  1  0  0  0  0
 30 31  2  0  0  0  0
 31 32  1  0  0  0  0
 33 34  1  0  0  0  0
M  END
> <NMREDATA_VERSION>
1.1

> <NMREDATA_LEVEL>
0

> <NMREDATA_SOLVENT>
DMSO-d6

> <NMREDATA_FORMULA>
C28H25O5P

> <NMREDATA_SMILES>
CCOc1ccc(cc1)[C@H](P(=O)(c1ccccc1)c1ccccc1)c1cc2OCOc2cc1O

> <NMREDATA_ASSIGNMENT>
P19, 31.91, 19

> <NMREDATA_1D_31P>
Larmor=243
31.91, L=P19

$$$$
