
 OpenBabel06112616442D

 40 46  0  0  0  0  0  0  0  0999 V2000
   -1.2953    2.9260    0.0000 O   0  0  0  0  0  0  0  0  0  0  0  0
   -1.5032    1.9479    0.0000 C   0  0  0  0  0  0  0  0  0  0  0  0
   -2.4543    1.6389    0.0000 C   0  0  0  0  0  0  0  0  0  0  0  0
   -2.6622    0.6607    0.0000 C   0  0  0  0  0  0  0  0  0  0  0  0
   -3.6132    0.3517    0.0000 C   0  0  0  0  0  0  0  0  0  0  0  0
   -4.3564    1.0208    0.0000 C   0  0  0  0  0  0  0  0  0  0  0  0
   -4.1485    1.9990    0.0000 C   0  0  0  0  0  0  0  0  0  0  0  0
   -3.1974    2.3080    0.0000 C   0  0  0  0  0  0  0  0  0  0  0  0
   -0.7601    1.2788    0.0000 C   0  0  0  0  0  0  0  0  0  0  0  0
    0.1910    1.5878    0.0000 C   0  0  0  0  0  0  0  0  0  0  0  0
    0.5000    2.5388    0.0000 C   0  0  0  0  0  0  0  0  0  0  0  0
    1.5000    2.5388    0.0000 C   0  0  0  0  0  0  0  0  0  0  0  0
    2.0000    3.4049    0.0000 C   0  0  0  0  0  0  0  0  0  0  0  0
    1.5000    4.2709    0.0000 C   0  0  0  0  0  0  0  0  0  0  0  0
    0.5000    4.2709    0.0000 C   0  0  0  0  0  0  0  0  0  0  0  0
    0.0000    3.4049    0.0000 C   0  0  0  0  0  0  0  0  0  0  0  0
    1.8090    1.5878    0.0000 N   0  0  0  0  0  0  0  0  0  0  0  0
    1.0000    1.0000    0.0000 C   0  0  0  0  0  0  0  0  0  0  0  0
    1.0000    0.0000    0.0000 P   0  0  0  0  0  0  0  0  0  0  0  0
    2.0000    0.0000    0.0000 C   0  0  0  0  0  0  0  0  0  0  0  0
    2.5000   -0.8660    0.0000 C   0  0  0  0  0  0  0  0  0  0  0  0
    3.5000   -0.8660    0.0000 C   0  0  0  0  0  0  0  0  0  0  0  0
    4.0000    0.0000    0.0000 C   0  0  0  0  0  0  0  0  0  0  0  0
    5.0000    0.0000    0.0000 C   0  0  0  0  0  0  0  0  0  0  0  0
    5.5000   -0.8660    0.0000 C   0  0  0  0  0  0  0  0  0  0  0  0
    5.0000   -1.7321    0.0000 C   0  0  0  0  0  0  0  0  0  0  0  0
    4.0000   -1.7321    0.0000 C   0  0  0  0  0  0  0  0  0  0  0  0
    3.5000    0.8660    0.0000 C   0  0  0  0  0  0  0  0  0  0  0  0
    2.5000    0.8660    0.0000 C   0  0  0  0  0  0  0  0  0  0  0  0
    1.0000   -1.0000    0.0000 C   0  0  0  0  0  0  0  0  0  0  0  0
    0.1340   -1.5000    0.0000 C   0  0  0  0  0  0  0  0  0  0  0  0
    0.1340   -2.5000    0.0000 C   0  0  0  0  0  0  0  0  0  0  0  0
    1.0000   -3.0000    0.0000 C   0  0  0  0  0  0  0  0  0  0  0  0
    1.0000   -4.0000    0.0000 C   0  0  0  0  0  0  0  0  0  0  0  0
    0.1340   -4.5000    0.0000 C   0  0  0  0  0  0  0  0  0  0  0  0
   -0.7321   -4.0000    0.0000 C   0  0  0  0  0  0  0  0  0  0  0  0
   -0.7321   -3.0000    0.0000 C   0  0  0  0  0  0  0  0  0  0  0  0
    1.8660   -2.5000    0.0000 C   0  0  0  0  0  0  0  0  0  0  0  0
    1.8660   -1.5000    0.0000 C   0  0  0  0  0  0  0  0  0  0  0  0
    0.0000    0.0000    0.0000 O   0  0  0  0  0  0  0  0  0  0  0  0
  1  2  2  0  0  0  0
  2  3  1  0  0  0  0
  2  9  1  0  0  0  0
  3  8  2  0  0  0  0
  3  4  1  0  0  0  0
  4  5  2  0  0  0  0
  5  6  1  0  0  0  0
  6  7  2  0  0  0  0
  7  8  1  0  0  0  0
  9 10  1  0  0  0  0
 10 18  2  0  0  0  0
 10 11  1  0  0  0  0
 11 16  2  0  0  0  0
 11 12  1  0  0  0  0
 12 13  2  0  0  0  0
 12 17  1  0  0  0  0
 13 14  1  0  0  0  0
 14 15  2  0  0  0  0
 15 16  1  0  0  0  0
 17 18  1  0  0  0  0
 18 19  1  0  0  0  0
 19 20  1  0  0  0  0
 19 30  1  0  0  0  0
 19 40  2  0  0  0  0
 20 29  2  0  0  0  0
 20 21  1  0  0  0  0
 21 22  2  0  0  0  0
 22 27  1  0  0  0  0
 22 23  1  0  0  0  0
 23 24  1  0  0  0  0
 23 28  2  0  0  0  0
 24 25  2  0  0  0  0
 25 26  1  0  0  0  0
 26 27  2  0  0  0  0
 28 29  1  0  0  0  0
 30 39  2  0  0  0  0
 30 31  1  0  0  0  0
 31 32  2  0  0  0  0
 32 37  1  0  0  0  0
 32 33  1  0  0  0  0
 33 34  1  0  0  0  0
 33 38  2  0  0  0  0
 34 35  2  0  0  0  0
 35 36  1  0  0  0  0
 36 37  2  0  0  0  0
 38 39  1  0  0  0  0
M  END
> <NMREDATA_VERSION>
1.1

> <NMREDATA_LEVEL>
0

> <NMREDATA_SOLVENT>
CDCl3

> <NMREDATA_FORMULA>
C36H26NO2P

> <NMREDATA_SMILES>
O=C(c1ccccc1)Cc1c2ccccc2[nH]c1P(=O)(c1ccc2c(c1)cccc2)c1ccc2c(c1)cccc2

> <NMREDATA_ASSIGNMENT>
P19, 21.80, 19

> <NMREDATA_1D_31P>
Larmor=162
21.80, L=P19

$$$$
