
 OpenBabel06112616442D

 22 24  0  0  1  0  0  0  0  0999 V2000
   -3.2641   -0.9075    0.0000 C   0  0  0  0  0  0  0  0  0  0  0  0
   -2.4185   -1.3958    0.0000 C   0  0  0  0  0  0  0  0  0  0  0  0
   -2.4187   -2.3271    0.0000 C   0  0  0  0  0  0  0  0  0  0  0  0
   -1.6127   -2.7926    0.0000 C   0  0  0  0  0  0  0  0  0  0  0  0
   -0.8062   -2.3273    0.0000 C   0  0  0  0  0  0  0  0  0  0  0  0
   -0.8061   -1.3960    0.0000 C   0  0  0  0  0  0  0  0  0  0  0  0
   -1.6125   -0.9305    0.0000 C   0  0  0  0  0  0  0  0  0  0  0  0
    0.0000   -0.9307    0.0000 C   0  0  2  0  0  0  0  0  0  0  0  0
    0.0000    0.0000    0.0000 P   0  0  0  0  0  0  0  0  0  0  0  0
    0.9104   -0.1935    0.0000 O   0  0  0  0  0  0  0  0  0  0  0  0
    0.1935    0.9104    0.0000 C   0  0  0  0  0  0  0  0  0  0  0  0
    1.0787    1.1980    0.0000 C   0  0  0  0  0  0  0  0  0  0  0  0
   -0.4982    1.5332    0.0000 C   0  0  0  0  0  0  0  0  0  0  0  0
   -1.8208    0.3870    0.0000 C   0  0  0  0  0  0  0  0  0  0  0  0
   -2.1084    1.2722    0.0000 C   0  0  0  0  0  0  0  0  0  0  0  0
   -2.4435   -0.3046    0.0000 C   0  0  0  0  0  0  0  0  0  0  0  0
    0.8064   -1.3962    0.0000 C   0  0  0  0  0  0  0  0  0  0  0  0
    1.6130   -0.9309    0.0000 C   0  0  0  0  0  0  0  0  0  0  0  0
    2.4189   -1.3964    0.0000 C   0  0  0  0  0  0  0  0  0  0  0  0
    2.4188   -2.3278    0.0000 C   0  0  0  0  0  0  0  0  0  0  0  0
    1.6127   -2.7931    0.0000 C   0  0  0  0  0  0  0  0  0  0  0  0
    0.8063   -2.3275    0.0000 C   0  0  0  0  0  0  0  0  0  0  0  0
  1  2  1  0  0  0  0
  2  7  2  0  0  0  0
  2  3  1  0  0  0  0
  3  4  2  0  0  0  0
  4  5  1  0  0  0  0
  5 22  1  0  0  0  0
  5  6  2  0  0  0  0
  6  7  1  0  0  0  0
  6  8  1  0  0  0  0
  8  9  1  6  0  0  0
  8 17  1  0  0  0  0
  9 10  2  0  0  0  0
  9 11  1  0  0  0  0
  9 14  1  0  0  0  0
 11 12  1  0  0  0  0
 11 13  1  0  0  0  0
 14 15  1  0  0  0  0
 14 16  1  0  0  0  0
 17 22  2  0  0  0  0
 17 18  1  0  0  0  0
 18 19  2  0  0  0  0
 19 20  1  0  0  0  0
 20 21  2  0  0  0  0
 21 22  1  0  0  0  0
M  END
> <NMREDATA_VERSION>
1.1

> <NMREDATA_LEVEL>
0

> <NMREDATA_SOLVENT>
CDCl3

> <NMREDATA_FORMULA>
C20H25OP

> <NMREDATA_SMILES>
Cc1ccc2-c3c([C@H](c2c1)P(=O)(C(C)C)C(C)C)cccc3

> <NMREDATA_ASSIGNMENT>
P9, 31.63, 9

> <NMREDATA_1D_31P>
Larmor=202
31.63, L=P9

$$$$
