
 OpenBabel06112616462D

 29 34  0  0  0  0  0  0  0  0999 V2000
   -4.8022    2.6618    0.0000 O   0  0  0  0  0  0  0  0  0  0  0  0
   -4.4308    1.7333    0.0000 P   0  0  3  0  0  0  0  0  0  0  0  0
   -5.0186    0.9243    0.0000 O   0  0  0  0  0  0  0  0  0  0  0  0
   -6.0131    1.0288    0.0000 C   0  0  0  0  0  0  0  0  0  0  0  0
   -6.4199    1.9423    0.0000 C   0  0  0  0  0  0  0  0  0  0  0  0
   -7.4144    2.0469    0.0000 C   0  0  0  0  0  0  0  0  0  0  0  0
   -8.0022    1.2378    0.0000 C   0  0  0  0  0  0  0  0  0  0  0  0
   -7.5954    0.3243    0.0000 C   0  0  0  0  0  0  0  0  0  0  0  0
   -6.6009    0.2198    0.0000 C   0  0  0  0  0  0  0  0  0  0  0  0
   -8.3386   -0.3448    0.0000 O   0  0  0  0  0  0  0  0  0  0  0  0
   -9.2046    0.1552    0.0000 C   0  0  0  0  0  0  0  0  0  0  0  0
   -8.9967    1.1333    0.0000 O   0  0  0  0  0  0  0  0  0  0  0  0
   -4.1432    2.6910    0.0000 O   0  0  0  0  0  0  0  0  0  0  0  0
   -3.2151    3.0633    0.0000 C   0  0  0  0  0  0  0  0  0  0  0  0
   -3.2226    4.0633    0.0000 C   0  0  0  0  0  0  0  0  0  0  0  0
   -2.3603    4.5698    0.0000 C   0  0  0  0  0  0  0  0  0  0  0  0
   -1.4906    4.0762    0.0000 C   0  0  0  0  0  0  0  0  0  0  0  0
   -1.4831    3.0763    0.0000 C   0  0  0  0  0  0  0  0  0  0  0  0
   -2.3454    2.5698    0.0000 C   0  0  0  0  0  0  0  0  0  0  0  0
   -2.1889    1.5821    0.0000 C   0  0  0  0  0  0  0  0  0  0  0  0
   -1.2124    1.3669    0.0000 C   0  0  0  0  0  0  0  0  0  0  0  0
   -0.9105    0.4136    0.0000 C   0  0  0  0  0  0  0  0  0  0  0  0
   -1.5851   -0.3246    0.0000 C   0  0  0  0  0  0  0  0  0  0  0  0
   -2.5617   -0.1093    0.0000 C   0  0  0  0  0  0  0  0  0  0  0  0
   -2.8636    0.8440    0.0000 C   0  0  0  0  0  0  0  0  0  0  0  0
   -3.8613    0.9113    0.0000 O   0  0  0  0  0  0  0  0  0  0  0  0
   -1.0916   -1.1943    0.0000 O   0  0  0  0  0  0  0  0  0  0  0  0
   -0.1120   -0.9937    0.0000 C   0  0  0  0  0  0  0  0  0  0  0  0
    0.0000    0.0000    0.0000 O   0  0  0  0  0  0  0  0  0  0  0  0
  1  2  2  0  0  0  0
  2 26  1  0  0  0  0
  2  3  1  0  0  0  0
  2 13  1  0  0  0  0
  3  4  1  0  0  0  0
  4  9  2  0  0  0  0
  4  5  1  0  0  0  0
  5  6  2  0  0  0  0
  6  7  1  0  0  0  0
  7 12  1  0  0  0  0
  7  8  2  0  0  0  0
  8  9  1  0  0  0  0
  8 10  1  0  0  0  0
 10 11  1  0  0  0  0
 11 12  1  0  0  0  0
 13 14  1  0  0  0  0
 14 19  2  0  0  0  0
 14 15  1  0  0  0  0
 15 16  2  0  0  0  0
 16 17  1  0  0  0  0
 17 18  2  0  0  0  0
 18 19  1  0  0  0  0
 19 20  1  0  0  0  0
 20 25  2  0  0  0  0
 20 21  1  0  0  0  0
 21 22  2  0  0  0  0
 22 29  1  0  0  0  0
 22 23  1  0  0  0  0
 23 24  2  0  0  0  0
 23 27  1  0  0  0  0
 24 25  1  0  0  0  0
 25 26  1  0  0  0  0
 27 28  1  0  0  0  0
 28 29  1  0  0  0  0
M  END
> <NMREDATA_VERSION>
1.1

> <NMREDATA_LEVEL>
0

> <NMREDATA_SOLVENT>
CDCl3

> <NMREDATA_FORMULA>
C20H13O8P

> <NMREDATA_SMILES>
O=P1(Oc2ccc3c(c2)OCO3)Oc2cc3OCOc3cc2-c2c(O1)cccc2

> <NMREDATA_ASSIGNMENT>
P2, -4.80, 2

> <NMREDATA_1D_31P>
Larmor=162
-4.80, L=P2

$$$$
