
 OpenBabel06112616442D

 30 33  0  0  1  0  0  0  0  0999 V2000
   -4.0000   -1.0000    0.0000 C   0  0  0  0  0  0  0  0  0  0  0  0
   -3.0000   -1.0000    0.0000 C   0  0  0  0  0  0  0  0  0  0  0  0
   -2.5000   -0.1340    0.0000 C   0  0  0  0  0  0  0  0  0  0  0  0
   -1.5000   -0.1340    0.0000 C   0  0  0  0  0  0  0  0  0  0  0  0
   -1.0000   -1.0000    0.0000 C   0  0  0  0  0  0  0  0  0  0  0  0
    0.0000   -1.0000    0.0000 P   0  0  0  0  0  0  0  0  0  0  0  0
    0.0000   -2.0000    0.0000 O   0  0  0  0  0  0  0  0  0  0  0  0
    1.0000   -1.0000    0.0000 C   0  0  0  0  0  0  0  0  0  0  0  0
    1.5000   -1.8660    0.0000 C   0  0  3  0  0  0  0  0  0  0  0  0
    0.8912   -2.6594    0.0000 C   0  0  0  0  0  0  0  0  0  0  0  0
    1.7588   -2.8320    0.0000 C   0  0  0  0  0  0  0  0  0  0  0  0
    2.7247   -3.0908    0.0000 N   0  0  0  0  0  0  0  0  0  0  0  0
    2.9836   -4.0567    0.0000 C   0  0  0  0  0  0  0  0  0  0  0  0
    3.4319   -2.3837    0.0000 C   0  0  0  0  0  0  0  0  0  0  0  0
    4.3978   -2.6425    0.0000 O   0  0  0  0  0  0  0  0  0  0  0  0
    3.1730   -1.4177    0.0000 C   0  0  0  0  0  0  0  0  0  0  0  0
    3.8801   -0.7106    0.0000 C   0  0  0  0  0  0  0  0  0  0  0  0
    3.6213    0.2553    0.0000 C   0  0  0  0  0  0  0  0  0  0  0  0
    2.6554    0.5141    0.0000 C   0  0  0  0  0  0  0  0  0  0  0  0
    1.9483   -0.1930    0.0000 C   0  0  0  0  0  0  0  0  0  0  0  0
    2.2071   -1.1589    0.0000 C   0  0  0  0  0  0  0  0  0  0  0  0
    0.0000    0.0000    0.0000 C   0  0  0  0  0  0  0  0  0  0  0  0
   -0.8660    0.5000    0.0000 C   0  0  0  0  0  0  0  0  0  0  0  0
   -0.8660    1.5000    0.0000 C   0  0  0  0  0  0  0  0  0  0  0  0
    0.0000    2.0000    0.0000 C   0  0  0  0  0  0  0  0  0  0  0  0
    0.0000    3.0000    0.0000 C   0  0  0  0  0  0  0  0  0  0  0  0
    0.8660    1.5000    0.0000 C   0  0  0  0  0  0  0  0  0  0  0  0
    0.8660    0.5000    0.0000 C   0  0  0  0  0  0  0  0  0  0  0  0
   -1.5000   -1.8660    0.0000 C   0  0  0  0  0  0  0  0  0  0  0  0
   -2.5000   -1.8660    0.0000 C   0  0  0  0  0  0  0  0  0  0  0  0
  1  2  1  0  0  0  0
  2 30  2  0  0  0  0
  2  3  1  0  0  0  0
  3  4  2  0  0  0  0
  4  5  1  0  0  0  0
  5  6  1  0  0  0  0
  5 29  2  0  0  0  0
  6  7  2  0  0  0  0
  6  8  1  0  0  0  0
  6 22  1  0  0  0  0
  8  9  1  0  0  0  0
  9 21  1  0  0  0  0
  9 10  1  0  0  0  0
  9 11  1  0  0  0  0
 11 12  1  0  0  0  0
 12 13  1  0  0  0  0
 12 14  1  0  0  0  0
 14 15  2  0  0  0  0
 14 16  1  0  0  0  0
 16 21  2  0  0  0  0
 16 17  1  0  0  0  0
 17 18  2  0  0  0  0
 18 19  1  0  0  0  0
 19 20  2  0  0  0  0
 20 21  1  0  0  0  0
 22 28  2  0  0  0  0
 22 23  1  0  0  0  0
 23 24  2  0  0  0  0
 24 25  1  0  0  0  0
 25 26  1  0  0  0  0
 25 27  2  0  0  0  0
 27 28  1  0  0  0  0
 29 30  1  0  0  0  0
M  END
> <NMREDATA_VERSION>
1.1

> <NMREDATA_LEVEL>
0

> <NMREDATA_SOLVENT>
CDCl3

> <NMREDATA_FORMULA>
C26H28NO2P

> <NMREDATA_SMILES>
Cc1ccc(cc1)P(=O)(c1ccc(cc1)C)CC1(C)CN(C)C(=O)c2c1cccc2

> <NMREDATA_ASSIGNMENT>
P6, 27.76, 6

> <NMREDATA_1D_31P>
Larmor=162
27.76, L=P6

$$$$
