
 OpenBabel06112616492D

 28 32  0  0  1  0  0  0  0  0999 V2000
    0.0000   -1.9394    0.0000 O   0  0  0  0  0  0  0  0  0  0  0  0
    0.0000   -0.9697    0.0000 P   0  0  0  0  0  0  0  0  0  0  0  0
    1.9394   -0.9697    0.0000 C   0  0  0  0  0  0  0  0  0  0  0  0
    2.4242   -0.1299    0.0000 C   0  0  0  0  0  0  0  0  0  0  0  0
    3.3939   -0.1299    0.0000 C   0  0  0  0  0  0  0  0  0  0  0  0
    3.8788   -0.9697    0.0000 C   0  0  0  0  0  0  0  0  0  0  0  0
    3.3939   -1.8095    0.0000 C   0  0  0  0  0  0  0  0  0  0  0  0
    2.4242   -1.8095    0.0000 C   0  0  0  0  0  0  0  0  0  0  0  0
    2.1246   -2.7317    0.0000 O   0  0  0  0  0  0  0  0  0  0  0  0
    2.9091   -3.3017    0.0000 C   0  0  0  0  0  0  0  0  0  0  0  0
    3.6936   -2.7317    0.0000 O   0  0  0  0  0  0  0  0  0  0  0  0
   -0.9697   -0.9697    0.0000 C   0  0  0  0  0  0  0  0  0  0  0  0
   -1.4545   -0.1299    0.0000 C   0  0  0  0  0  0  0  0  0  0  0  0
   -2.4242   -0.1299    0.0000 C   0  0  0  0  0  0  0  0  0  0  0  0
   -2.9091   -0.9697    0.0000 C   0  0  0  0  0  0  0  0  0  0  0  0
   -2.4242   -1.8095    0.0000 C   0  0  0  0  0  0  0  0  0  0  0  0
   -1.4545   -1.8095    0.0000 C   0  0  0  0  0  0  0  0  0  0  0  0
   -1.1549   -2.7317    0.0000 O   0  0  0  0  0  0  0  0  0  0  0  0
   -1.9394   -3.3017    0.0000 C   0  0  0  0  0  0  0  0  0  0  0  0
   -2.7239   -2.7317    0.0000 O   0  0  0  0  0  0  0  0  0  0  0  0
    0.0000    0.0000    0.0000 C   0  0  3  0  0  0  0  0  0  0  0  0
   -0.8398    0.4848    0.0000 O   0  0  0  0  0  0  0  0  0  0  0  0
    0.8398    0.4848    0.0000 C   0  0  0  0  0  0  0  0  0  0  0  0
    1.6796    0.0000    0.0000 C   0  0  0  0  0  0  0  0  0  0  0  0
    2.5193    0.4848    0.0000 C   0  0  0  0  0  0  0  0  0  0  0  0
    2.5193    1.4545    0.0000 C   0  0  0  0  0  0  0  0  0  0  0  0
    1.6796    1.9394    0.0000 C   0  0  0  0  0  0  0  0  0  0  0  0
    0.8398    1.4545    0.0000 C   0  0  0  0  0  0  0  0  0  0  0  0
  1  2  2  0  0  0  0
  2  3  1  0  0  0  0
  2 12  1  0  0  0  0
  2 21  1  0  0  0  0
  3  8  2  0  0  0  0
  3  4  1  0  0  0  0
  4  5  2  0  0  0  0
  5  6  1  0  0  0  0
  6  7  2  0  0  0  0
  7 11  1  0  0  0  0
  7  8  1  0  0  0  0
  8  9  1  0  0  0  0
  9 10  1  0  0  0  0
 10 11  1  0  0  0  0
 12 17  2  0  0  0  0
 12 13  1  0  0  0  0
 13 14  2  0  0  0  0
 14 15  1  0  0  0  0
 15 16  2  0  0  0  0
 16 20  1  0  0  0  0
 16 17  1  0  0  0  0
 17 18  1  0  0  0  0
 18 19  1  0  0  0  0
 19 20  1  0  0  0  0
 21 22  1  0  0  0  0
 21 23  1  0  0  0  0
 23 28  2  0  0  0  0
 23 24  1  0  0  0  0
 24 25  2  0  0  0  0
 25 26  1  0  0  0  0
 26 27  2  0  0  0  0
 27 28  1  0  0  0  0
M  END
> <NMREDATA_VERSION>
1.1

> <NMREDATA_LEVEL>
0

> <NMREDATA_SOLVENT>
DMSO-d6

> <NMREDATA_FORMULA>
C21H17O6P

> <NMREDATA_SMILES>
OC(P(=O)(c1cccc2c1OCO2)c1cccc2c1OCO2)c1ccccc1

> <NMREDATA_ASSIGNMENT>
P2, 28.02, 2

> <NMREDATA_1D_31P>
Larmor=243
28.02, L=P2

$$$$
