
 OpenBabel06112616452D

 30 34  0  0  0  0  0  0  0  0999 V2000
   -2.9143   -3.6254    0.0000 C   0  0  0  0  0  0  0  0  0  0  0  0
   -2.4286   -2.7841    0.0000 C   0  0  0  0  0  0  0  0  0  0  0  0
   -2.9143   -1.9429    0.0000 C   0  0  0  0  0  0  0  0  0  0  0  0
   -2.4286   -1.1016    0.0000 C   0  0  0  0  0  0  0  0  0  0  0  0
   -1.4571   -1.1016    0.0000 C   0  0  0  0  0  0  0  0  0  0  0  0
   -0.9714   -1.9429    0.0000 C   0  0  0  0  0  0  0  0  0  0  0  0
    0.0000   -1.9429    0.0000 P   0  0  0  0  0  0  0  0  0  0  0  0
    0.0000   -2.9143    0.0000 O   0  0  0  0  0  0  0  0  0  0  0  0
    0.9714   -1.9429    0.0000 C   0  0  0  0  0  0  0  0  0  0  0  0
    1.4571   -1.1016    0.0000 C   0  0  0  0  0  0  0  0  0  0  0  0
    2.4286   -1.1016    0.0000 C   0  0  0  0  0  0  0  0  0  0  0  0
    2.9143   -1.9429    0.0000 C   0  0  0  0  0  0  0  0  0  0  0  0
    2.4286   -2.7841    0.0000 C   0  0  0  0  0  0  0  0  0  0  0  0
    2.9143   -3.6254    0.0000 C   0  0  0  0  0  0  0  0  0  0  0  0
    1.4571   -2.7841    0.0000 C   0  0  0  0  0  0  0  0  0  0  0  0
    0.0000    0.0000    0.0000 C   0  0  0  0  0  0  0  0  0  0  0  0
   -0.8413    0.4857    0.0000 C   0  0  0  0  0  0  0  0  0  0  0  0
   -1.6826    0.0000    0.0000 C   0  0  0  0  0  0  0  0  0  0  0  0
   -2.5238    0.4857    0.0000 C   0  0  0  0  0  0  0  0  0  0  0  0
   -2.5238    1.4571    0.0000 C   0  0  0  0  0  0  0  0  0  0  0  0
   -1.6826    1.9429    0.0000 C   0  0  0  0  0  0  0  0  0  0  0  0
   -0.8413    1.4571    0.0000 C   0  0  0  0  0  0  0  0  0  0  0  0
    0.0000    1.9429    0.0000 O   0  0  0  0  0  0  0  0  0  0  0  0
    0.8413    1.4571    0.0000 C   0  0  0  0  0  0  0  0  0  0  0  0
    1.6826    1.9429    0.0000 C   0  0  0  0  0  0  0  0  0  0  0  0
    2.5238    1.4571    0.0000 C   0  0  0  0  0  0  0  0  0  0  0  0
    2.5238    0.4857    0.0000 C   0  0  0  0  0  0  0  0  0  0  0  0
    1.6826    0.0000    0.0000 C   0  0  0  0  0  0  0  0  0  0  0  0
    0.8413    0.4857    0.0000 C   0  0  0  0  0  0  0  0  0  0  0  0
   -1.4571   -2.7841    0.0000 C   0  0  0  0  0  0  0  0  0  0  0  0
  1  2  1  0  0  0  0
  2 30  2  0  0  0  0
  2  3  1  0  0  0  0
  3  4  2  0  0  0  0
  4  5  1  0  0  0  0
  5  6  2  0  0  0  0
  6  7  1  0  0  0  0
  6 30  1  0  0  0  0
  7  8  2  0  0  0  0
  7  9  1  0  0  0  0
  7 16  1  0  0  0  0
  9 15  2  0  0  0  0
  9 10  1  0  0  0  0
 10 11  2  0  0  0  0
 11 12  1  0  0  0  0
 12 13  2  0  0  0  0
 13 14  1  0  0  0  0
 13 15  1  0  0  0  0
 16 29  1  0  0  0  0
 16 17  1  0  0  0  0
 17 22  2  0  0  0  0
 17 18  1  0  0  0  0
 18 19  2  0  0  0  0
 19 20  1  0  0  0  0
 20 21  2  0  0  0  0
 21 22  1  0  0  0  0
 22 23  1  0  0  0  0
 23 24  1  0  0  0  0
 24 29  2  0  0  0  0
 24 25  1  0  0  0  0
 25 26  2  0  0  0  0
 26 27  1  0  0  0  0
 27 28  2  0  0  0  0
 28 29  1  0  0  0  0
M  END
> <NMREDATA_VERSION>
1.1

> <NMREDATA_LEVEL>
0

> <NMREDATA_SOLVENT>
CDCl3

> <NMREDATA_FORMULA>
C27H23O2P

> <NMREDATA_SMILES>
Cc1cccc(c1)P(=O)(C1c2ccccc2Oc2c1cccc2)c1cccc(c1)C

> <NMREDATA_ASSIGNMENT>
P7, 30.20, 7

> <NMREDATA_1D_31P>
Larmor=162
30.20, L=P7

$$$$
