
 OpenBabel06112616482D

 24 25  0  0  1  0  0  0  0  0999 V2000
   -7.2749    0.9851    0.0000 N    0  0  0  0  0  0  0  0  0  0  0  0
   -6.4659    0.3973    0.0000 C    0  0  0  0  0  0  0  0  0  0  0  0
   -5.5523    0.8041    0.0000 C    0  0  0  0  0  0  0  0  0  0  0  0
   -4.7433    0.2163    0.0000 C    0  0  0  0  0  0  0  0  0  0  0  0
   -4.8479   -0.7782    0.0000 N    0  0  0  0  0  0  0  0  0  0  0  0
   -4.0388   -1.3660    0.0000 C    0  0  2  0  0  0  0  0  0  0  0  0
   -3.0878   -1.0570    0.0000 O    0  0  0  0  0  0  0  0  0  0  0  0
   -2.5000   -1.8660    0.0000 C    0  0  2  0  0  0  0  0  0  0  0  0
   -1.5000   -1.8660    0.0000 C    0  0  2  0  0  0  0  0  0  0  0  0
   -1.0000   -2.7321    0.0000 O    0  0  0  0  0  0  0  0  0  0  0  0
   -1.0000   -1.0000    0.0000 C    0  0  0  0  0  0  0  0  0  0  0  0
    0.0000   -1.0000    0.0000 P    0  0  0  0  0  0  0  0  0  0  0  0
    0.0000   -2.0000    0.0000 O    0  0  0  0  0  0  0  0  0  0  0  0
    1.0000   -1.0000    0.0000 O    0  0  0  0  0  0  0  0  0  0  0  0
    1.5000   -1.8660    0.0000 Na   0  0  0  0  0  0  0  0  0  0  0  0
    0.0000    0.0000    0.0000 O    0  0  0  0  0  0  0  0  0  0  0  0
    0.8660    0.5000    0.0000 Na   0  0  0  0  0  0  0  0  0  0  0  0
   -3.0878   -2.6750    0.0000 C    0  0  1  0  0  0  0  0  0  0  0  0
   -2.7788   -3.6261    0.0000 O    0  0  0  0  0  0  0  0  0  0  0  0
   -4.0388   -2.3660    0.0000 C    0  0  1  0  0  0  0  0  0  0  0  0
   -4.8479   -2.9538    0.0000 O    0  0  0  0  0  0  0  0  0  0  0  0
   -5.7614   -1.1850    0.0000 C    0  0  0  0  0  0  0  0  0  0  0  0
   -5.8659   -2.1795    0.0000 O    0  0  0  0  0  0  0  0  0  0  0  0
   -6.5704   -0.5972    0.0000 N    0  0  0  0  0  0  0  0  0  0  0  0
  1  2  1  0  0  0  0
  2 24  2  0  0  0  0
  2  3  1  0  0  0  0
  3  4  2  0  0  0  0
  4  5  1  0  0  0  0
  5 22  1  0  0  0  0
  6  5  1  6  0  0  0
  6  7  1  0  0  0  0
  6 20  1  0  0  0  0
  7  8  1  0  0  0  0
  8  9  1  6  0  0  0
  8 18  1  0  0  0  0
  9 10  1  1  0  0  0
  9 11  1  0  0  0  0
 11 12  1  0  0  0  0
 12 13  2  0  0  0  0
 12 14  1  0  0  0  0
 12 16  1  0  0  0  0
 14 15  1  0  0  0  0
 16 17  1  0  0  0  0
 18 19  1  1  0  0  0
 18 20  1  0  0  0  0
 20 21  1  1  0  0  0
 22 23  2  0  0  0  0
 22 24  1  0  0  0  0
M  END
> <NMREDATA_VERSION>
1.1

> <NMREDATA_LEVEL>
0

> <NMREDATA_SOLVENT>
D2O

> <NMREDATA_FORMULA>
C10H14N3Na2O8P

> <NMREDATA_SMILES>
[Na]OP(=O)(C[C@H]([C@H]1O[C@H]([C@@H]([C@@H]1O)O)n1ccc(nc1=O)N)O)O[Na]

> <NMREDATA_ASSIGNMENT>
P12, 20.50, 12

> <NMREDATA_1D_31P>
Larmor=121
20.50, L=P12

$$$$
