
 OpenBabel06112616472D

 39 44  0  0  1  0  0  0  0  0999 V2000
   -6.0000    0.7321    0.0000 C   0  0  0  0  0  0  0  0  0  0  0  0
   -5.5000   -0.1340    0.0000 O   0  0  0  0  0  0  0  0  0  0  0  0
   -4.5000   -0.1340    0.0000 C   0  0  0  0  0  0  0  0  0  0  0  0
   -4.0000   -1.0000    0.0000 C   0  0  0  0  0  0  0  0  0  0  0  0
   -3.0000   -1.0000    0.0000 C   0  0  0  0  0  0  0  0  0  0  0  0
   -2.5000   -0.1340    0.0000 C   0  0  0  0  0  0  0  0  0  0  0  0
   -1.5000   -0.1340    0.0000 C   0  0  3  0  0  0  0  0  0  0  0  0
   -1.0000    0.7321    0.0000 C   0  0  0  0  0  0  0  0  0  0  0  0
    0.0000    0.7321    0.0000 N   0  0  0  0  0  0  0  0  0  0  0  0
   -0.4335   -2.2314    0.0000 C   0  0  0  0  0  0  0  0  0  0  0  0
   -0.0268   -3.1450    0.0000 C   0  0  0  0  0  0  0  0  0  0  0  0
   -0.4335   -4.0585    0.0000 C   0  0  0  0  0  0  0  0  0  0  0  0
    0.1543   -4.8675    0.0000 C   0  0  0  0  0  0  0  0  0  0  0  0
    1.1488   -4.7630    0.0000 C   0  0  0  0  0  0  0  0  0  0  0  0
    1.5555   -3.8494    0.0000 C   0  0  0  0  0  0  0  0  0  0  0  0
    0.9677   -3.0404    0.0000 C   0  0  0  0  0  0  0  0  0  0  0  0
    1.1756   -2.0623    0.0000 C   0  0  0  0  0  0  0  0  0  0  0  0
    2.0417   -1.5623    0.0000 C   0  0  0  0  0  0  0  0  0  0  0  0
    2.0417   -0.5623    0.0000 C   0  0  0  0  0  0  0  0  0  0  0  0
    1.1756   -0.0623    0.0000 C   0  0  0  0  0  0  0  0  0  0  0  0
    0.3096   -0.5623    0.0000 C   0  0  0  0  0  0  0  0  0  0  0  0
    0.3096   -1.5623    0.0000 C   0  0  0  0  0  0  0  0  0  0  0  0
   -1.0000   -1.0000    0.0000 N   0  0  0  0  0  0  0  0  0  0  0  0
    0.0000   -1.0000    0.0000 P   0  0  0  0  0  0  0  0  0  0  0  0
    0.0000   -2.0000    0.0000 C   0  0  0  0  0  0  0  0  0  0  0  0
    0.8660   -2.5000    0.0000 C   0  0  0  0  0  0  0  0  0  0  0  0
    0.8660   -3.5000    0.0000 C   0  0  0  0  0  0  0  0  0  0  0  0
    0.0000   -4.0000    0.0000 C   0  0  0  0  0  0  0  0  0  0  0  0
   -0.8660   -3.5000    0.0000 C   0  0  0  0  0  0  0  0  0  0  0  0
   -0.8660   -2.5000    0.0000 C   0  0  0  0  0  0  0  0  0  0  0  0
    1.0000   -1.0000    0.0000 C   0  0  0  0  0  0  0  0  0  0  0  0
    1.5000   -0.1340    0.0000 C   0  0  0  0  0  0  0  0  0  0  0  0
    2.5000   -0.1340    0.0000 C   0  0  0  0  0  0  0  0  0  0  0  0
    3.0000   -1.0000    0.0000 C   0  0  0  0  0  0  0  0  0  0  0  0
    2.5000   -1.8660    0.0000 C   0  0  0  0  0  0  0  0  0  0  0  0
    1.5000   -1.8660    0.0000 C   0  0  0  0  0  0  0  0  0  0  0  0
    0.0000    0.0000    0.0000 O   0  0  0  0  0  0  0  0  0  0  0  0
   -3.0000    0.7321    0.0000 C   0  0  0  0  0  0  0  0  0  0  0  0
   -4.0000    0.7321    0.0000 C   0  0  0  0  0  0  0  0  0  0  0  0
  1  2  1  0  0  0  0
  2  3  1  0  0  0  0
  3 39  2  0  0  0  0
  3  4  1  0  0  0  0
  4  5  2  0  0  0  0
  5  6  1  0  0  0  0
  6  7  1  0  0  0  0
  6 38  2  0  0  0  0
  7  8  1  0  0  0  0
  7 23  1  0  0  0  0
  8  9  1  0  0  0  0
  9 10  2  0  0  0  0
 10 22  1  0  0  0  0
 10 11  1  0  0  0  0
 11 16  2  0  0  0  0
 11 12  1  0  0  0  0
 12 13  2  0  0  0  0
 13 14  1  0  0  0  0
 14 15  2  0  0  0  0
 15 16  1  0  0  0  0
 16 17  1  0  0  0  0
 17 22  2  0  0  0  0
 17 18  1  0  0  0  0
 18 19  2  0  0  0  0
 19 20  1  0  0  0  0
 20 21  2  0  0  0  0
 21 22  1  0  0  0  0
 23 24  1  0  0  0  0
 24 25  1  0  0  0  0
 24 31  1  0  0  0  0
 24 37  2  0  0  0  0
 25 30  2  0  0  0  0
 25 26  1  0  0  0  0
 26 27  2  0  0  0  0
 27 28  1  0  0  0  0
 28 29  2  0  0  0  0
 29 30  1  0  0  0  0
 31 36  2  0  0  0  0
 31 32  1  0  0  0  0
 32 33  2  0  0  0  0
 33 34  1  0  0  0  0
 34 35  2  0  0  0  0
 35 36  1  0  0  0  0
 38 39  1  0  0  0  0
M  END
> <NMREDATA_VERSION>
1.1

> <NMREDATA_LEVEL>
0

> <NMREDATA_SOLVENT>
CDCl3

> <NMREDATA_FORMULA>
C34H29N2O2P

> <NMREDATA_SMILES>
COc1ccc(cc1)C(NP(=O)(c1ccccc1)c1ccccc1)CN=C1c2ccccc2-c2c1cccc2

> <NMREDATA_ASSIGNMENT>
P24, 24.20, 24

> <NMREDATA_1D_31P>
Larmor=not_known
24.20, L=P24

$$$$
