
 OpenBabel06112616452D

 42 48  0  0  1  0  0  0  0  0999 V2000
    4.8980    0.0000    0.0000 C   0  0  0  0  0  0  0  0  0  0  0  0
    3.9184    0.0000    0.0000 C   0  0  0  0  0  0  0  0  0  0  0  0
    3.4286   -0.8484    0.0000 C   0  0  0  0  0  0  0  0  0  0  0  0
    2.4490   -0.8484    0.0000 C   0  0  0  0  0  0  0  0  0  0  0  0
    1.9592    0.0000    0.0000 C   0  0  0  0  0  0  0  0  0  0  0  0
    0.9796    0.0000    0.0000 P   0  0  0  0  0  0  0  0  0  0  0  0
    0.9796   -0.9796    0.0000 O   0  0  0  0  0  0  0  0  0  0  0  0
    0.9796    1.9592    0.0000 C   0  0  0  0  0  0  0  0  0  0  0  0
    1.8279    2.4490    0.0000 C   0  0  3  0  0  0  0  0  0  0  0  0
    1.8279    1.4694    0.0000 C   0  0  0  0  0  0  0  0  0  0  0  0
    1.3381    3.2973    0.0000 C   0  0  0  0  0  0  0  0  0  0  0  0
    0.3586    3.2973    0.0000 O   0  0  0  0  0  0  0  0  0  0  0  0
    1.8279    4.1457    0.0000 N   0  0  0  0  0  0  0  0  0  0  0  0
    2.8075    4.1457    0.0000 C   0  0  0  0  0  0  0  0  0  0  0  0
    3.1102    5.0773    0.0000 C   0  0  0  0  0  0  0  0  0  0  0  0
    4.0419    5.3800    0.0000 C   0  0  0  0  0  0  0  0  0  0  0  0
    4.2456    6.3382    0.0000 C   0  0  0  0  0  0  0  0  0  0  0  0
    5.1772    6.6409    0.0000 C   0  0  0  0  0  0  0  0  0  0  0  0
    5.9052    5.9855    0.0000 C   0  0  0  0  0  0  0  0  0  0  0  0
    5.7015    5.0273    0.0000 C   0  0  0  0  0  0  0  0  0  0  0  0
    4.7699    4.7246    0.0000 C   0  0  0  0  0  0  0  0  0  0  0  0
    2.3177    5.6531    0.0000 C   0  0  0  0  0  0  0  0  0  0  0  0
    2.2153    6.6273    0.0000 C   0  0  0  0  0  0  0  0  0  0  0  0
    1.3204    7.0258    0.0000 C   0  0  0  0  0  0  0  0  0  0  0  0
    0.5279    6.4500    0.0000 C   0  0  0  0  0  0  0  0  0  0  0  0
    0.6303    5.4758    0.0000 C   0  0  0  0  0  0  0  0  0  0  0  0
    1.5252    5.0773    0.0000 C   0  0  0  0  0  0  0  0  0  0  0  0
    3.2973    3.2973    0.0000 C   0  0  0  0  0  0  0  0  0  0  0  0
    4.2769    3.2973    0.0000 C   0  0  0  0  0  0  0  0  0  0  0  0
    4.7667    2.4490    0.0000 C   0  0  0  0  0  0  0  0  0  0  0  0
    4.2769    1.6006    0.0000 C   0  0  0  0  0  0  0  0  0  0  0  0
    3.2973    1.6006    0.0000 C   0  0  0  0  0  0  0  0  0  0  0  0
    2.8075    2.4490    0.0000 C   0  0  0  0  0  0  0  0  0  0  0  0
    0.0000    0.0000    0.0000 C   0  0  0  0  0  0  0  0  0  0  0  0
   -0.4898    0.8484    0.0000 C   0  0  0  0  0  0  0  0  0  0  0  0
   -1.4694    0.8484    0.0000 C   0  0  0  0  0  0  0  0  0  0  0  0
   -1.9592    0.0000    0.0000 C   0  0  0  0  0  0  0  0  0  0  0  0
   -2.9388    0.0000    0.0000 C   0  0  0  0  0  0  0  0  0  0  0  0
   -1.4694   -0.8484    0.0000 C   0  0  0  0  0  0  0  0  0  0  0  0
   -0.4898   -0.8484    0.0000 C   0  0  0  0  0  0  0  0  0  0  0  0
    2.4490    0.8484    0.0000 C   0  0  0  0  0  0  0  0  0  0  0  0
    3.4286    0.8484    0.0000 C   0  0  0  0  0  0  0  0  0  0  0  0
  1  2  1  0  0  0  0
  2 42  2  0  0  0  0
  2  3  1  0  0  0  0
  3  4  2  0  0  0  0
  4  5  1  0  0  0  0
  5  6  1  0  0  0  0
  5 41  2  0  0  0  0
  6  7  2  0  0  0  0
  6  8  1  0  0  0  0
  6 34  1  0  0  0  0
  8  9  1  0  0  0  0
  9 33  1  0  0  0  0
  9 10  1  0  0  0  0
  9 11  1  0  0  0  0
 11 12  2  0  0  0  0
 11 13  1  0  0  0  0
 13 27  1  0  0  0  0
 13 14  1  0  0  0  0
 14 15  2  0  0  0  0
 14 28  1  0  0  0  0
 15 16  1  0  0  0  0
 15 22  1  0  0  0  0
 16 21  2  0  0  0  0
 16 17  1  0  0  0  0
 17 18  2  0  0  0  0
 18 19  1  0  0  0  0
 19 20  2  0  0  0  0
 20 21  1  0  0  0  0
 22 27  2  0  0  0  0
 22 23  1  0  0  0  0
 23 24  2  0  0  0  0
 24 25  1  0  0  0  0
 25 26  2  0  0  0  0
 26 27  1  0  0  0  0
 28 33  2  0  0  0  0
 28 29  1  0  0  0  0
 29 30  2  0  0  0  0
 30 31  1  0  0  0  0
 31 32  2  0  0  0  0
 32 33  1  0  0  0  0
 34 40  2  0  0  0  0
 34 35  1  0  0  0  0
 35 36  2  0  0  0  0
 36 37  1  0  0  0  0
 37 38  1  0  0  0  0
 37 39  2  0  0  0  0
 39 40  1  0  0  0  0
 41 42  1  0  0  0  0
M  END
> <NMREDATA_VERSION>
1.1

> <NMREDATA_LEVEL>
0

> <NMREDATA_SOLVENT>
CDCl3

> <NMREDATA_FORMULA>
C38H32NO2P

> <NMREDATA_SMILES>
Cc1ccc(cc1)P(=O)(c1ccc(cc1)C)CC1(C)c2ccccc2-c2n(C1=O)c1ccccc1c2c1ccccc1

> <NMREDATA_ASSIGNMENT>
P6, 27.50, 6

> <NMREDATA_1D_31P>
Larmor=202
27.50, L=P6

$$$$
