
 OpenBabel06112616482D

 46 48  0  0  1  0  0  0  0  0999 V2000
   -2.5000    1.5981    0.0000 C   0  0  2  0  0  0  0  0  0  0  0  0
   -3.0000    2.4641    0.0000 O   0  0  0  0  0  0  0  0  0  0  0  0
   -4.0000    2.4641    0.0000 C   0  0  0  0  0  0  0  0  0  0  0  0
   -4.5000    3.3301    0.0000 C   0  0  0  0  0  0  0  0  0  0  0  0
   -5.5000    3.3301    0.0000 C   0  0  0  0  0  0  0  0  0  0  0  0
   -1.5000    1.5981    0.0000 C   0  0  2  0  0  0  0  0  0  0  0  0
   -1.0000    2.4641    0.0000 O   0  0  0  0  0  0  0  0  0  0  0  0
   -1.5000    3.3301    0.0000 C   0  0  0  0  0  0  0  0  0  0  0  0
   -1.0000    4.1962    0.0000 O   0  0  0  0  0  0  0  0  0  0  0  0
   -1.5000    5.0622    0.0000 C   0  0  0  0  0  0  0  0  0  0  0  0
   -1.0000    0.7321    0.0000 C   0  0  2  0  0  0  0  0  0  0  0  0
    0.0000    0.7321    0.0000 O   0  0  0  0  0  0  0  0  0  0  0  0
    0.5000    1.5981    0.0000 C   0  0  0  0  0  0  0  0  0  0  0  0
    1.5000    1.5981    0.0000 C   0  0  0  0  0  0  0  0  0  0  0  0
    2.0000    2.4641    0.0000 C   0  0  0  0  0  0  0  0  0  0  0  0
    3.0000    2.4641    0.0000 C   0  0  0  0  0  0  0  0  0  0  0  0
    3.5000    1.5981    0.0000 C   0  0  0  0  0  0  0  0  0  0  0  0
    4.5000    1.5981    0.0000 O   0  0  0  0  0  0  0  0  0  0  0  0
    5.0000    0.7321    0.0000 C   0  0  0  0  0  0  0  0  0  0  0  0
    3.0000    0.7321    0.0000 C   0  0  0  0  0  0  0  0  0  0  0  0
    2.0000    0.7321    0.0000 C   0  0  0  0  0  0  0  0  0  0  0  0
   -1.5000   -0.1340    0.0000 C   0  0  1  0  0  0  0  0  0  0  0  0
   -1.0000   -1.0000    0.0000 O   0  0  0  0  0  0  0  0  0  0  0  0
    0.0000   -1.0000    0.0000 P   0  0  3  0  0  0  0  0  0  0  0  0
    0.0000   -2.0000    0.0000 O   0  0  0  0  0  0  0  0  0  0  0  0
    1.0000   -1.0000    0.0000 O   0  0  0  0  0  0  0  0  0  0  0  0
    0.0000    0.0000    0.0000 O   0  0  0  0  0  0  0  0  0  0  0  0
    0.8660    0.5000    0.0000 C   0  0  0  0  0  0  0  0  0  0  0  0
    1.7321    0.0000    0.0000 C   0  0  0  0  0  0  0  0  0  0  0  0
    1.7321   -1.0000    0.0000 C   0  0  0  0  0  0  0  0  0  0  0  0
   -2.5000   -0.1340    0.0000 C   0  0  1  0  0  0  0  0  0  0  0  0
   -3.0000   -1.0000    0.0000 O   0  0  0  0  0  0  0  0  0  0  0  0
   -4.0000   -1.0000    0.0000 C   0  0  0  0  0  0  0  0  0  0  0  0
   -4.5000   -1.8660    0.0000 C   0  0  0  0  0  0  0  0  0  0  0  0
   -4.0000   -2.7321    0.0000 C   0  0  0  0  0  0  0  0  0  0  0  0
   -3.0000    0.7321    0.0000 C   0  0  2  0  0  0  0  0  0  0  0  0
   -4.0000    0.7321    0.0000 O   0  0  0  0  0  0  0  0  0  0  0  0
   -4.5000    1.5981    0.0000 C   0  0  0  0  0  0  0  0  0  0  0  0
   -5.5000    1.5981    0.0000 C   0  0  0  0  0  0  0  0  0  0  0  0
   -6.0000    2.4641    0.0000 C   0  0  0  0  0  0  0  0  0  0  0  0
   -7.0000    2.4641    0.0000 C   0  0  0  0  0  0  0  0  0  0  0  0
   -7.5000    1.5981    0.0000 C   0  0  0  0  0  0  0  0  0  0  0  0
   -8.5000    1.5981    0.0000 O   0  0  0  0  0  0  0  0  0  0  0  0
   -9.0000    2.4641    0.0000 C   0  0  0  0  0  0  0  0  0  0  0  0
   -7.0000    0.7321    0.0000 C   0  0  0  0  0  0  0  0  0  0  0  0
   -6.0000    0.7321    0.0000 C   0  0  0  0  0  0  0  0  0  0  0  0
  1  2  1  6  0  0  0
  1 36  1  0  0  0  0
  1  6  1  0  0  0  0
  2  3  1  0  0  0  0
  3  4  1  0  0  0  0
  4  5  2  0  0  0  0
  6  7  1  6  0  0  0
  6 11  1  0  0  0  0
  7  8  1  0  0  0  0
  8  9  1  0  0  0  0
  9 10  1  0  0  0  0
 11 12  1  6  0  0  0
 11 22  1  0  0  0  0
 12 13  1  0  0  0  0
 13 14  1  0  0  0  0
 14 21  2  0  0  0  0
 14 15  1  0  0  0  0
 15 16  2  0  0  0  0
 16 17  1  0  0  0  0
 17 18  1  0  0  0  0
 17 20  2  0  0  0  0
 18 19  1  0  0  0  0
 20 21  1  0  0  0  0
 22 23  1  1  0  0  0
 22 31  1  0  0  0  0
 23 24  1  0  0  0  0
 24 25  2  0  0  0  0
 24 26  1  0  0  0  0
 24 27  1  0  0  0  0
 27 28  1  0  0  0  0
 28 29  1  0  0  0  0
 29 30  2  0  0  0  0
 31 32  1  1  0  0  0
 31 36  1  0  0  0  0
 32 33  1  0  0  0  0
 33 34  1  0  0  0  0
 34 35  2  0  0  0  0
 36 37  1  6  0  0  0
 37 38  1  0  0  0  0
 38 39  1  0  0  0  0
 39 46  2  0  0  0  0
 39 40  1  0  0  0  0
 40 41  2  0  0  0  0
 41 42  1  0  0  0  0
 42 43  1  0  0  0  0
 42 45  2  0  0  0  0
 43 44  1  0  0  0  0
 45 46  1  0  0  0  0
M  END
> <NMREDATA_VERSION>
1.1

> <NMREDATA_LEVEL>
0

> <NMREDATA_SOLVENT>
CDCl3

> <NMREDATA_FORMULA>
C33H45O12P

> <NMREDATA_SMILES>
C=CCO[C@@H]1[C@H](OCOC)[C@H](OCc2ccc(cc2)OC)[C@H]([C@H]([C@@H]1OCc1ccc(cc1)OC)OCC=C)OP(=O)(OCC=C)O

> <NMREDATA_ASSIGNMENT>
P24, 0.69, 24

> <NMREDATA_1D_31P>
Larmor=160
0.69, L=P24

$$$$
