
 OpenBabel06112616472D

 34 38  0  0  1  0  0  0  0  0999 V2000
    1.3171   -5.4693    0.0000 C   0  0  0  0  0  0  0  0  0  0  0  0
    1.6182   -4.5426    0.0000 C   0  0  0  0  0  0  0  0  0  0  0  0
    0.9662   -3.8186    0.0000 C   0  0  0  0  0  0  0  0  0  0  0  0
    1.2673   -2.8919    0.0000 C   0  0  0  0  0  0  0  0  0  0  0  0
    2.2203   -2.6893    0.0000 C   0  0  0  0  0  0  0  0  0  0  0  0
    2.5214   -1.7626    0.0000 C   0  0  0  0  0  0  0  0  0  0  0  0
    1.9487   -0.9744    0.0000 C   0  0  0  0  0  0  0  0  0  0  0  0
    0.0000   -0.9744    0.0000 P   0  0  0  0  0  0  0  0  0  0  0  0
    0.0000   -1.9487    0.0000 O   0  0  0  0  0  0  0  0  0  0  0  0
   -0.9744   -0.9744    0.0000 C   0  0  0  0  0  0  0  0  0  0  0  0
   -1.4615   -0.1305    0.0000 C   0  0  0  0  0  0  0  0  0  0  0  0
   -2.4359   -0.1305    0.0000 C   0  0  0  0  0  0  0  0  0  0  0  0
   -2.9231   -0.9744    0.0000 C   0  0  0  0  0  0  0  0  0  0  0  0
   -2.4359   -1.8182    0.0000 C   0  0  0  0  0  0  0  0  0  0  0  0
   -1.4615   -1.8182    0.0000 C   0  0  0  0  0  0  0  0  0  0  0  0
    0.0000    0.0000    0.0000 C   0  0  0  0  0  0  0  0  0  0  0  0
    0.8438    0.4872    0.0000 C   0  0  0  0  0  0  0  0  0  0  0  0
    0.8438    1.4615    0.0000 C   0  0  0  0  0  0  0  0  0  0  0  0
    0.0000    1.9487    0.0000 C   0  0  0  0  0  0  0  0  0  0  0  0
   -0.8438    1.4615    0.0000 C   0  0  0  0  0  0  0  0  0  0  0  0
   -0.8438    0.4872    0.0000 C   0  0  0  0  0  0  0  0  0  0  0  0
    2.5214   -0.1861    0.0000 C   0  0  0  0  0  0  0  0  0  0  0  0
    2.2203    0.7406    0.0000 O   0  0  0  0  0  0  0  0  0  0  0  0
    3.4481   -0.4872    0.0000 N   0  0  0  0  0  0  0  0  0  0  0  0
    4.2364    0.0855    0.0000 C   0  0  0  0  0  0  0  0  0  0  0  0
    3.4481   -1.4615    0.0000 C   0  0  3  0  0  0  0  0  0  0  0  0
    4.3382   -1.0652    0.0000 C   0  0  0  0  0  0  0  0  0  0  0  0
    5.1265   -1.6379    0.0000 C   0  0  0  0  0  0  0  0  0  0  0  0
    5.0246   -2.6070    0.0000 C   0  0  0  0  0  0  0  0  0  0  0  0
    5.8129   -3.1797    0.0000 O   0  0  0  0  0  0  0  0  0  0  0  0
    4.1345   -3.0033    0.0000 C   0  0  0  0  0  0  0  0  0  0  0  0
    3.3463   -2.4306    0.0000 C   0  0  0  0  0  0  0  0  0  0  0  0
    2.8723   -3.4134    0.0000 C   0  0  0  0  0  0  0  0  0  0  0  0
    2.5712   -4.3401    0.0000 C   0  0  0  0  0  0  0  0  0  0  0  0
  1  2  1  0  0  0  0
  2 34  2  0  0  0  0
  2  3  1  0  0  0  0
  3  4  2  0  0  0  0
  4  5  1  0  0  0  0
  5  6  1  0  0  0  0
  5 33  2  0  0  0  0
  6 26  1  0  0  0  0
  6  7  2  0  0  0  0
  7  8  1  0  0  0  0
  7 22  1  0  0  0  0
  8  9  2  0  0  0  0
  8 10  1  0  0  0  0
  8 16  1  0  0  0  0
 10 15  2  0  0  0  0
 10 11  1  0  0  0  0
 11 12  2  0  0  0  0
 12 13  1  0  0  0  0
 13 14  2  0  0  0  0
 14 15  1  0  0  0  0
 16 21  2  0  0  0  0
 16 17  1  0  0  0  0
 17 18  2  0  0  0  0
 18 19  1  0  0  0  0
 19 20  2  0  0  0  0
 20 21  1  0  0  0  0
 22 23  2  0  0  0  0
 22 24  1  0  0  0  0
 24 25  1  0  0  0  0
 24 26  1  0  0  0  0
 26 32  1  0  0  0  0
 26 27  1  0  0  0  0
 27 28  2  0  0  0  0
 28 29  1  0  0  0  0
 29 30  2  0  0  0  0
 29 31  1  0  0  0  0
 31 32  2  0  0  0  0
 33 34  1  0  0  0  0
M  END
> <NMREDATA_VERSION>
1.1

> <NMREDATA_LEVEL>
0

> <NMREDATA_SOLVENT>
CDCl3

> <NMREDATA_FORMULA>
C29H24NO3P

> <NMREDATA_SMILES>
O=C1C=CC2(C=C1)N(C)C(=O)C(=C2c1ccc(cc1)C)P(=O)(c1ccccc1)c1ccccc1

> <NMREDATA_ASSIGNMENT>
P8, 18.33, 8

> <NMREDATA_1D_31P>
Larmor=162
18.33, L=P8

$$$$
