
 OpenBabel06112616492D

 21 20  0  0  0  0  0  0  0  0999 V2000
    2.4649   -4.8622    0.0000 C    0  0  0  0  0  0  0  0  0  0  0  0
    3.3309   -5.3622    0.0000 C    0  0  0  0  0  0  0  0  0  0  0  0
    4.1970   -4.8622    0.0000 C    0  0  0  0  0  0  0  0  0  0  0  0
    4.1970   -3.8622    0.0000 P    0  3  0  0  0  0  0  0  0  0  0  0
    5.1970   -3.8622    0.0000 C    0  0  0  0  0  0  0  0  0  0  0  0
    5.6970   -2.9962    0.0000 C    0  0  0  0  0  0  0  0  0  0  0  0
    6.6970   -2.9962    0.0000 C    0  0  0  0  0  0  0  0  0  0  0  0
    4.1970   -2.8622    0.0000 C    0  0  0  0  0  0  0  0  0  0  0  0
    5.0630   -2.3622    0.0000 C    0  0  0  0  0  0  0  0  0  0  0  0
    5.0630   -1.3622    0.0000 C    0  0  0  0  0  0  0  0  0  0  0  0
    3.1970   -3.8622    0.0000 C    0  0  0  0  0  0  0  0  0  0  0  0
    2.6970   -2.9962    0.0000 C    0  0  0  0  0  0  0  0  0  0  0  0
    1.7024   -2.8917    0.0000 O    0  0  0  0  0  0  0  0  0  0  0  0
    1.4945   -1.9135    0.0000 C    0  0  0  0  0  0  0  0  0  0  0  0
    0.9067   -1.1045    0.0000 C    0  0  0  0  0  0  0  0  0  0  0  0
    0.5000   -2.0181    0.0000 C    0  0  0  0  0  0  0  0  0  0  0  0
    2.3605   -1.4135    0.0000 C    0  0  0  0  0  0  0  0  0  0  0  0
    2.9483   -0.6045    0.0000 C    0  0  0  0  0  0  0  0  0  0  0  0
    1.9538   -0.5000    0.0000 C    0  0  0  0  0  0  0  0  0  0  0  0
    3.1037   -2.0827    0.0000 O    0  0  0  0  0  0  0  0  0  0  0  0
    7.6970   -0.5000    0.0000 Br   0  5  0  0  0  0  0  0  0  0  0  0
  1  2  1  0  0  0  0
  2  3  1  0  0  0  0
  3  4  1  0  0  0  0
  4  5  1  0  0  0  0
  4  8  1  0  0  0  0
  4 11  1  0  0  0  0
  5  6  1  0  0  0  0
  6  7  1  0  0  0  0
  8  9  1  0  0  0  0
  9 10  1  0  0  0  0
 11 12  1  0  0  0  0
 12 20  1  0  0  0  0
 12 13  1  0  0  0  0
 13 14  1  0  0  0  0
 14 15  1  0  0  0  0
 14 16  1  0  0  0  0
 14 17  1  0  0  0  0
 17 18  1  0  0  0  0
 17 19  1  0  0  0  0
 17 20  1  0  0  0  0
M  END
> <NMREDATA_VERSION>
1.1

> <NMREDATA_LEVEL>
0

> <NMREDATA_SOLVENT>
CDCl3

> <NMREDATA_FORMULA>
C17H36BrO2P

> <NMREDATA_SMILES>
CCCP(CC1OC(C(O1)(C)C)(C)C)(CCC)CCC.Br

> <NMREDATA_ASSIGNMENT>
P4, 29.90, 4

> <NMREDATA_1D_31P>
Larmor=240
29.90, L=P4

$$$$
