
 OpenBabel06112616462D

 26 27  0  0  0  0  0  0  0  0999 V2000
   -5.3035   -5.1547    0.0000 C   0  0  0  0  0  0  0  0  0  0  0  0
   -4.3525   -5.4637    0.0000 C   0  0  0  0  0  0  0  0  0  0  0  0
   -3.6093   -4.7946    0.0000 C   0  0  0  0  0  0  0  0  0  0  0  0
   -2.6583   -5.1036    0.0000 C   0  0  0  0  0  0  0  0  0  0  0  0
   -1.9151   -4.4344    0.0000 C   0  0  0  0  0  0  0  0  0  0  0  0
   -2.1230   -3.4563    0.0000 C   0  0  0  0  0  0  0  0  0  0  0  0
   -1.3799   -2.7872    0.0000 C   0  0  0  0  0  0  0  0  0  0  0  0
   -0.4288   -3.0962    0.0000 N   0  0  0  0  0  0  0  0  0  0  0  0
   -1.5878   -1.8090    0.0000 C   0  0  0  0  0  0  0  0  0  0  0  0
   -2.5388   -1.5000    0.0000 C   0  0  0  0  0  0  0  0  0  0  0  0
   -2.5388   -0.5000    0.0000 C   0  0  0  0  0  0  0  0  0  0  0  0
   -1.5878   -0.1910    0.0000 C   0  0  0  0  0  0  0  0  0  0  0  0
   -1.0000   -1.0000    0.0000 N   0  0  0  0  0  0  0  0  0  0  0  0
    0.0000   -1.0000    0.0000 P   0  0  0  0  0  0  0  0  0  0  0  0
    0.0000   -2.0000    0.0000 C   0  0  0  0  0  0  0  0  0  0  0  0
    0.5000   -2.8660    0.0000 C   0  0  0  0  0  0  0  0  0  0  0  0
    1.0000   -2.0000    0.0000 C   0  0  0  0  0  0  0  0  0  0  0  0
   -0.8660   -2.5000    0.0000 C   0  0  0  0  0  0  0  0  0  0  0  0
    1.0000   -1.0000    0.0000 C   0  0  0  0  0  0  0  0  0  0  0  0
    1.8660   -0.5000    0.0000 C   0  0  0  0  0  0  0  0  0  0  0  0
    1.0000    0.0000    0.0000 C   0  0  0  0  0  0  0  0  0  0  0  0
    1.5000   -1.8660    0.0000 C   0  0  0  0  0  0  0  0  0  0  0  0
    0.0000    0.0000    0.0000 O   0  0  0  0  0  0  0  0  0  0  0  0
   -3.2820   -2.1691    0.0000 C   0  0  0  0  0  0  0  0  0  0  0  0
   -3.0741   -3.1473    0.0000 C   0  0  0  0  0  0  0  0  0  0  0  0
   -0.9641   -4.7435    0.0000 O   0  0  0  0  0  0  0  0  0  0  0  0
  1  2  1  0  0  0  0
  2  3  1  0  0  0  0
  3  4  1  0  0  0  0
  4  5  1  0  0  0  0
  5  6  1  0  0  0  0
  5 26  2  0  0  0  0
  6 25  2  0  0  0  0
  6  7  1  0  0  0  0
  7  8  1  0  0  0  0
  7  9  2  0  0  0  0
  9 13  1  0  0  0  0
  9 10  1  0  0  0  0
 10 11  1  0  0  0  0
 10 24  2  0  0  0  0
 11 12  2  0  0  0  0
 12 13  1  0  0  0  0
 13 14  1  0  0  0  0
 14 15  1  0  0  0  0
 14 19  1  0  0  0  0
 14 23  2  0  0  0  0
 15 16  1  0  0  0  0
 15 17  1  0  0  0  0
 15 18  1  0  0  0  0
 19 20  1  0  0  0  0
 19 21  1  0  0  0  0
 19 22  1  0  0  0  0
 24 25  1  0  0  0  0
M  END
> <NMREDATA_VERSION>
1.1

> <NMREDATA_LEVEL>
0

> <NMREDATA_SOLVENT>
CDCl3

> <NMREDATA_FORMULA>
C21H33N2O2P

> <NMREDATA_SMILES>
CCCCC(=O)c1ccc2c(c1N)n(cc2)P(=O)(C(C)(C)C)C(C)(C)C

> <NMREDATA_ASSIGNMENT>
P14, 67.00, 14

> <NMREDATA_1D_31P>
Larmor=162
67.00, L=P14

$$$$
