
 OpenBabel06112616482D

 28 31  0  0  1  0  0  0  0  0999 V2000
    2.6225   -1.6538    0.0000 C   0  0  0  0  0  0  0  0  0  0  0  0
    1.6538   -1.6538    0.0000 C   0  0  0  0  0  0  0  0  0  0  0  0
    0.9687   -2.3388    0.0000 C   0  0  0  0  0  0  0  0  0  0  0  0
    0.2837   -1.6538    0.0000 C   0  0  1  0  0  0  0  0  0  0  0  0
   -1.6538   -1.6538    0.0000 C   0  0  0  0  0  0  0  0  0  0  0  0
   -2.1381   -0.8148    0.0000 O   0  0  0  0  0  0  0  0  0  0  0  0
   -2.1381   -2.4927    0.0000 O   0  0  0  0  0  0  0  0  0  0  0  0
   -3.1069   -2.4927    0.0000 C   0  0  0  0  0  0  0  0  0  0  0  0
    0.9688   -0.9687    0.0000 C   0  0  2  0  0  0  0  0  0  0  0  0
    0.9687    0.0000    0.0000 P   0  0  0  0  0  0  0  0  0  0  0  0
    1.9375    0.0000    0.0000 O   0  0  0  0  0  0  0  0  0  0  0  0
    0.9687    0.9687    0.0000 C   0  0  0  0  0  0  0  0  0  0  0  0
    0.1298    1.4531    0.0000 C   0  0  0  0  0  0  0  0  0  0  0  0
    0.1298    2.4219    0.0000 C   0  0  0  0  0  0  0  0  0  0  0  0
    0.9687    2.9062    0.0000 C   0  0  0  0  0  0  0  0  0  0  0  0
    1.8077    2.4219    0.0000 C   0  0  0  0  0  0  0  0  0  0  0  0
    1.8077    1.4531    0.0000 C   0  0  0  0  0  0  0  0  0  0  0  0
    0.0000    0.0000    0.0000 C   0  0  0  0  0  0  0  0  0  0  0  0
   -0.4844   -0.8390    0.0000 C   0  0  0  0  0  0  0  0  0  0  0  0
   -1.4531   -0.8390    0.0000 C   0  0  0  0  0  0  0  0  0  0  0  0
   -1.9375    0.0000    0.0000 C   0  0  0  0  0  0  0  0  0  0  0  0
   -1.4531    0.8390    0.0000 C   0  0  0  0  0  0  0  0  0  0  0  0
   -0.4844    0.8390    0.0000 C   0  0  0  0  0  0  0  0  0  0  0  0
    3.1069   -0.8148    0.0000 C   0  0  0  0  0  0  0  0  0  0  0  0
    4.0756   -0.8148    0.0000 C   0  0  0  0  0  0  0  0  0  0  0  0
    4.5600   -1.6538    0.0000 C   0  0  0  0  0  0  0  0  0  0  0  0
    4.0756   -2.4927    0.0000 C   0  0  0  0  0  0  0  0  0  0  0  0
    3.1069   -2.4927    0.0000 C   0  0  0  0  0  0  0  0  0  0  0  0
  1 28  2  0  0  0  0
  1  2  1  0  0  0  0
  1 24  1  0  0  0  0
  2  9  1  0  0  0  0
  2  3  2  0  0  0  0
  3  4  1  0  0  0  0
  4  5  1  1  0  0  0
  4  9  1  0  0  0  0
  5  6  2  0  0  0  0
  5  7  1  0  0  0  0
  7  8  1  0  0  0  0
  9 10  1  6  0  0  0
 10 11  2  0  0  0  0
 10 12  1  0  0  0  0
 10 18  1  0  0  0  0
 12 17  2  0  0  0  0
 12 13  1  0  0  0  0
 13 14  2  0  0  0  0
 14 15  1  0  0  0  0
 15 16  2  0  0  0  0
 16 17  1  0  0  0  0
 18 23  2  0  0  0  0
 18 19  1  0  0  0  0
 19 20  2  0  0  0  0
 20 21  1  0  0  0  0
 21 22  2  0  0  0  0
 22 23  1  0  0  0  0
 24 25  2  0  0  0  0
 25 26  1  0  0  0  0
 26 27  2  0  0  0  0
 27 28  1  0  0  0  0
M  END
> <NMREDATA_VERSION>
1.1

> <NMREDATA_LEVEL>
0

> <NMREDATA_SOLVENT>
CDCl3

> <NMREDATA_FORMULA>
C24H21O3P

> <NMREDATA_SMILES>
COC(=O)[C@@H]1C=C([C@H]1P(=O)(c1ccccc1)c1ccccc1)c1ccccc1

> <NMREDATA_ASSIGNMENT>
P10, 28.80, 10

> <NMREDATA_1D_31P>
Larmor=202
28.80, L=P10

$$$$
