
 OpenBabel06112616482D

 41 45  0  0  1  0  0  0  0  0999 V2000
    0.0000   -0.9574    0.0000 C   0  0  0  0  0  0  0  0  0  0  0  0
    0.8292   -1.4362    0.0000 C   0  0  0  0  0  0  0  0  0  0  0  0
   -0.8292   -1.4362    0.0000 C   0  0  0  0  0  0  0  0  0  0  0  0
   -1.6583   -0.9574    0.0000 C   0  0  0  0  0  0  0  0  0  0  0  0
   -1.6583    0.0000    0.0000 C   0  0  0  0  0  0  0  0  0  0  0  0
   -3.3167    0.9574    0.0000 C   0  0  3  0  0  0  0  0  0  0  0  0
   -3.3167    1.9149    0.0000 C   0  0  0  0  0  0  0  0  0  0  0  0
   -4.1459    2.3936    0.0000 C   0  0  0  0  0  0  0  0  0  0  0  0
   -4.1459    3.3511    0.0000 C   0  0  0  0  0  0  0  0  0  0  0  0
   -4.9750    3.8298    0.0000 C   0  0  0  0  0  0  0  0  0  0  0  0
   -5.9325    3.8298    0.0000 C   0  0  0  0  0  0  0  0  0  0  0  0
   -5.4538    3.0006    0.0000 C   0  0  0  0  0  0  0  0  0  0  0  0
   -4.9750    4.7872    0.0000 C   0  0  0  0  0  0  0  0  0  0  0  0
   -3.3167    3.8298    0.0000 C   0  0  0  0  0  0  0  0  0  0  0  0
   -3.3167    4.7872    0.0000 O   0  0  0  0  0  0  0  0  0  0  0  0
   -2.4875    3.3511    0.0000 C   0  0  0  0  0  0  0  0  0  0  0  0
   -1.6583    3.8298    0.0000 C   0  0  0  0  0  0  0  0  0  0  0  0
   -1.1796    4.6590    0.0000 C   0  0  0  0  0  0  0  0  0  0  0  0
   -2.1371    4.6590    0.0000 C   0  0  0  0  0  0  0  0  0  0  0  0
   -0.8292    3.3511    0.0000 C   0  0  0  0  0  0  0  0  0  0  0  0
   -2.4875    2.3936    0.0000 C   0  0  0  0  0  0  0  0  0  0  0  0
   -4.9750    0.0000    0.0000 P   0  0  0  0  0  0  0  0  0  0  0  0
   -4.9750    0.9574    0.0000 O   0  0  0  0  0  0  0  0  0  0  0  0
   -4.5856   -0.8747    0.0000 N   0  0  0  0  0  0  0  0  0  0  0  0
   -3.6491   -1.0737    0.0000 C   0  0  0  0  0  0  0  0  0  0  0  0
   -3.0084   -0.3622    0.0000 C   0  0  0  0  0  0  0  0  0  0  0  0
   -2.0719   -0.5613    0.0000 C   0  0  0  0  0  0  0  0  0  0  0  0
   -1.7760   -1.4719    0.0000 C   0  0  0  0  0  0  0  0  0  0  0  0
   -2.4167   -2.1834    0.0000 C   0  0  0  0  0  0  0  0  0  0  0  0
   -3.3532   -1.9843    0.0000 C   0  0  0  0  0  0  0  0  0  0  0  0
   -5.2971   -1.5153    0.0000 C   0  0  0  0  0  0  0  0  0  0  0  0
   -6.1263   -1.0366    0.0000 C   0  0  0  0  0  0  0  0  0  0  0  0
   -5.9272   -0.1001    0.0000 N   0  0  0  0  0  0  0  0  0  0  0  0
   -6.5679    0.6114    0.0000 C   0  0  0  0  0  0  0  0  0  0  0  0
   -7.5044    0.4124    0.0000 C   0  0  0  0  0  0  0  0  0  0  0  0
   -8.1451    1.1239    0.0000 C   0  0  0  0  0  0  0  0  0  0  0  0
   -7.8492    2.0345    0.0000 C   0  0  0  0  0  0  0  0  0  0  0  0
   -6.9127    2.2335    0.0000 C   0  0  0  0  0  0  0  0  0  0  0  0
   -6.2720    1.5220    0.0000 C   0  0  0  0  0  0  0  0  0  0  0  0
   -0.8292    0.4787    0.0000 C   0  0  0  0  0  0  0  0  0  0  0  0
    0.0000    0.0000    0.0000 C   0  0  0  0  0  0  0  0  0  0  0  0
  1 41  2  0  0  0  0
  1  2  1  0  0  0  0
  1  3  1  0  0  0  0
  3  4  2  0  0  0  0
  4  5  1  0  0  0  0
  5  6  1  0  0  0  0
  5 40  2  0  0  0  0
  6  7  1  0  0  0  0
  6 22  1  0  0  0  0
  7 21  2  0  0  0  0
  7  8  1  0  0  0  0
  8  9  2  0  0  0  0
  9 10  1  0  0  0  0
  9 14  1  0  0  0  0
 10 11  1  0  0  0  0
 10 12  1  0  0  0  0
 10 13  1  0  0  0  0
 14 15  1  0  0  0  0
 14 16  2  0  0  0  0
 16 17  1  0  0  0  0
 16 21  1  0  0  0  0
 17 18  1  0  0  0  0
 17 19  1  0  0  0  0
 17 20  1  0  0  0  0
 22 33  1  0  0  0  0
 22 23  2  0  0  0  0
 22 24  1  0  0  0  0
 24 25  1  0  0  0  0
 24 31  1  0  0  0  0
 25 30  2  0  0  0  0
 25 26  1  0  0  0  0
 26 27  2  0  0  0  0
 27 28  1  0  0  0  0
 28 29  2  0  0  0  0
 29 30  1  0  0  0  0
 31 32  1  0  0  0  0
 32 33  1  0  0  0  0
 33 34  1  0  0  0  0
 34 39  2  0  0  0  0
 34 35  1  0  0  0  0
 35 36  2  0  0  0  0
 36 37  1  0  0  0  0
 37 38  2  0  0  0  0
 38 39  1  0  0  0  0
 40 41  1  0  0  0  0
M  END
> <NMREDATA_VERSION>
1.1

> <NMREDATA_LEVEL>
0

> <NMREDATA_SOLVENT>
CDCl3

> <NMREDATA_FORMULA>
C36H43N2O2P

> <NMREDATA_SMILES>
Cc1ccc(cc1)C(P1(=O)N(CCN1c1ccccc1)c1ccccc1)c1cc(c(c(c1)C(C)(C)C)O)C(C)(C)C

> <NMREDATA_ASSIGNMENT>
P22, 28.65, 22

> <NMREDATA_1D_31P>
Larmor=162
28.65, L=P22

$$$$
