
 OpenBabel06112616462D

 21 23  0  0  0  0  0  0  0  0999 V2000
   -0.5878   -0.8090    0.0000 C   0  0  0  0  0  0  0  0  0  0  0  0
   -0.7957   -1.7872    0.0000 C   0  0  0  0  0  0  0  0  0  0  0  0
    0.1554   -1.4781    0.0000 C   0  0  0  0  0  0  0  0  0  0  0  0
   -1.5388   -0.5000    0.0000 C   0  0  0  0  0  0  0  0  0  0  0  0
   -2.4049   -1.0000    0.0000 C   0  0  0  0  0  0  0  0  0  0  0  0
   -3.2709   -0.5000    0.0000 C   0  0  0  0  0  0  0  0  0  0  0  0
   -3.2709    0.5000    0.0000 C   0  0  0  0  0  0  0  0  0  0  0  0
   -4.1369    1.0000    0.0000 C   0  0  0  0  0  0  0  0  0  0  0  0
   -5.0029    0.5000    0.0000 C   0  0  0  0  0  0  0  0  0  0  0  0
   -5.8690    1.0000    0.0000 C   0  0  0  0  0  0  0  0  0  0  0  0
   -5.8690    2.0000    0.0000 C   0  0  0  0  0  0  0  0  0  0  0  0
   -5.0029    2.5000    0.0000 C   0  0  0  0  0  0  0  0  0  0  0  0
   -4.1369    2.0000    0.0000 C   0  0  0  0  0  0  0  0  0  0  0  0
   -2.4049    1.0000    0.0000 C   0  0  0  0  0  0  0  0  0  0  0  0
   -1.5388    0.5000    0.0000 C   0  0  0  0  0  0  0  0  0  0  0  0
   -0.5878    0.8090    0.0000 O   0  0  0  0  0  0  0  0  0  0  0  0
    0.0000    0.0000    0.0000 P   0  0  3  0  0  0  0  0  0  0  0  0
    0.8660   -0.5000    0.0000 O   0  0  0  0  0  0  0  0  0  0  0  0
    0.8660    0.5000    0.0000 O   0  0  0  0  0  0  0  0  0  0  0  0
    1.7321    0.0000    0.0000 C   0  0  0  0  0  0  0  0  0  0  0  0
    1.7321   -1.0000    0.0000 C   0  0  0  0  0  0  0  0  0  0  0  0
  1 17  1  0  0  0  0
  1  2  1  0  0  0  0
  1  3  1  0  0  0  0
  1  4  1  0  0  0  0
  4 15  2  0  0  0  0
  4  5  1  0  0  0  0
  5  6  2  0  0  0  0
  6  7  1  0  0  0  0
  7  8  1  0  0  0  0
  7 14  2  0  0  0  0
  8 13  2  0  0  0  0
  8  9  1  0  0  0  0
  9 10  2  0  0  0  0
 10 11  1  0  0  0  0
 11 12  2  0  0  0  0
 12 13  1  0  0  0  0
 14 15  1  0  0  0  0
 15 16  1  0  0  0  0
 16 17  1  0  0  0  0
 17 18  2  0  0  0  0
 17 19  1  0  0  0  0
 19 20  1  0  0  0  0
 20 21  1  0  0  0  0
M  END
> <NMREDATA_VERSION>
1.1

> <NMREDATA_LEVEL>
0

> <NMREDATA_SOLVENT>
CDCl3

> <NMREDATA_FORMULA>
C17H19O3P

> <NMREDATA_SMILES>
CCOP1(=O)Oc2c(C1(C)C)ccc(c2)c1ccccc1

> <NMREDATA_ASSIGNMENT>
P17, 51.30, 17

> <NMREDATA_1D_31P>
Larmor=161
51.30, L=P17

$$$$
