
 OpenBabel06112616442D

 39 44  0  0  1  0  0  0  0  0999 V2000
    2.6850   -0.9828    0.0000 C   0  0  0  0  0  0  0  0  0  0  0  0
    1.8339   -1.4741    0.0000 C   0  0  3  0  0  0  0  0  0  0  0  0
    0.9828   -0.9828    0.0000 C   0  0  0  0  0  0  0  0  0  0  0  0
    0.9828    0.0000    0.0000 P   0  0  0  0  0  0  0  0  0  0  0  0
    1.9655    0.0000    0.0000 O   0  0  0  0  0  0  0  0  0  0  0  0
    0.9828    0.9828    0.0000 C   0  0  0  0  0  0  0  0  0  0  0  0
    0.1317    1.4741    0.0000 C   0  0  0  0  0  0  0  0  0  0  0  0
    0.1317    2.4569    0.0000 C   0  0  0  0  0  0  0  0  0  0  0  0
    0.9828    2.9483    0.0000 C   0  0  0  0  0  0  0  0  0  0  0  0
    1.8339    2.4569    0.0000 C   0  0  0  0  0  0  0  0  0  0  0  0
    1.8339    1.4741    0.0000 C   0  0  0  0  0  0  0  0  0  0  0  0
    0.0000    0.0000    0.0000 C   0  0  0  0  0  0  0  0  0  0  0  0
   -0.4914   -0.8511    0.0000 C   0  0  0  0  0  0  0  0  0  0  0  0
   -1.4741   -0.8511    0.0000 C   0  0  0  0  0  0  0  0  0  0  0  0
   -1.9655    0.0000    0.0000 C   0  0  0  0  0  0  0  0  0  0  0  0
   -1.4741    0.8511    0.0000 C   0  0  0  0  0  0  0  0  0  0  0  0
   -0.4914    0.8511    0.0000 C   0  0  0  0  0  0  0  0  0  0  0  0
    1.8339   -2.4569    0.0000 C   0  0  0  0  0  0  0  0  0  0  0  0
    0.8992   -2.7606    0.0000 O   0  0  0  0  0  0  0  0  0  0  0  0
    2.5642   -3.1145    0.0000 O   0  0  0  0  0  0  0  0  0  0  0  0
    3.4153   -2.6231    0.0000 C   0  0  0  0  0  0  0  0  0  0  0  0
    4.2667   -3.1149    0.0000 C   0  0  0  0  0  0  0  0  0  0  0  0
    5.1181   -2.6239    0.0000 C   0  0  0  0  0  0  0  0  0  0  0  0
    5.1179   -1.6411    0.0000 C   0  0  0  0  0  0  0  0  0  0  0  0
    4.2665   -1.1493    0.0000 C   0  0  0  0  0  0  0  0  0  0  0  0
    3.4152   -1.6404    0.0000 C   0  0  0  0  0  0  0  0  0  0  0  0
    4.2666   -0.1661    0.0000 C   0  0  0  0  0  0  0  0  0  0  0  0
    5.1182    0.3255    0.0000 C   0  0  0  0  0  0  0  0  0  0  0  0
    5.9697   -0.1663    0.0000 C   0  0  2  0  0  0  0  0  0  0  0  0
    5.9695   -1.1496    0.0000 C   0  0  2  0  0  0  0  0  0  0  0  0
    6.8205   -1.6410    0.0000 C   0  0  0  0  0  0  0  0  0  0  0  0
    7.6721   -1.1495    0.0000 C   0  0  0  0  0  0  0  0  0  0  0  0
    7.6722   -0.1662    0.0000 C   0  0  2  0  0  0  0  0  0  0  0  0
    8.5382   -0.6663    0.0000 C   0  0  0  0  0  0  0  0  0  0  0  0
    8.5238    0.3253    0.0000 C   0  0  0  0  0  0  0  0  0  0  0  0
    9.3898   -0.1748    0.0000 O   0  0  0  0  0  0  0  0  0  0  0  0
    8.5234    1.3076    0.0000 C   0  0  0  0  0  0  0  0  0  0  0  0
    7.6725    1.7990    0.0000 C   0  0  0  0  0  0  0  0  0  0  0  0
    6.8213    0.3253    0.0000 C   0  0  2  0  0  0  0  0  0  0  0  0
  1  2  1  0  0  0  0
  2  3  1  0  0  0  0
  2 18  1  0  0  0  0
  3  4  1  0  0  0  0
  4  5  2  0  0  0  0
  4  6  1  0  0  0  0
  4 12  1  0  0  0  0
  6 11  2  0  0  0  0
  6  7  1  0  0  0  0
  7  8  2  0  0  0  0
  8  9  1  0  0  0  0
  9 10  2  0  0  0  0
 10 11  1  0  0  0  0
 12 17  2  0  0  0  0
 12 13  1  0  0  0  0
 13 14  2  0  0  0  0
 14 15  1  0  0  0  0
 15 16  2  0  0  0  0
 16 17  1  0  0  0  0
 18 19  2  0  0  0  0
 18 20  1  0  0  0  0
 20 21  1  0  0  0  0
 21 26  2  0  0  0  0
 21 22  1  0  0  0  0
 22 23  2  0  0  0  0
 23 24  1  0  0  0  0
 24 30  1  0  0  0  0
 24 25  2  0  0  0  0
 25 26  1  0  0  0  0
 25 27  1  0  0  0  0
 27 28  1  0  0  0  0
 29 28  1  1  0  0  0
 29 30  1  0  0  0  0
 29 39  1  0  0  0  0
 30 31  1  6  0  0  0
 31 32  1  0  0  0  0
 32 33  1  0  0  0  0
 33 39  1  0  0  0  0
 33 34  1  6  0  0  0
 33 35  1  0  0  0  0
 35 36  2  0  0  0  0
 35 37  1  0  0  0  0
 37 38  1  0  0  0  0
 39 38  1  1  0  0  0
M  END
> <NMREDATA_VERSION>
1.1

> <NMREDATA_LEVEL>
0

> <NMREDATA_SOLVENT>
CDCl3

> <NMREDATA_FORMULA>
C34H37O4P

> <NMREDATA_SMILES>
O=C(C(CP(=O)(c1ccccc1)c1ccccc1)C)Oc1ccc2c(c1)CC[C@@H]1[C@@H]2CC[C@]2([C@@H]1CCC2=O)C

> <NMREDATA_ASSIGNMENT>
P4, 30.60, 4

> <NMREDATA_1D_31P>
Larmor=162
30.60, L=P4

$$$$
