
 OpenBabel06112616452D

 46 50  0  0  0  0  0  0  0  0999 V2000
    1.0254   -3.0762    0.0000 O   0  0  0  0  0  0  0  0  0  0  0  0
    1.9134   -2.5635    0.0000 C   0  0  0  0  0  0  0  0  0  0  0  0
    2.8015   -3.0762    0.0000 O   0  0  0  0  0  0  0  0  0  0  0  0
    0.6809   -0.8561    0.0000 C   0  0  0  0  0  0  0  0  0  0  0  0
    0.4221   -1.8221    0.0000 C   0  0  0  0  0  0  0  0  0  0  0  0
    0.6809   -2.7880    0.0000 C   0  0  0  0  0  0  0  0  0  0  0  0
    1.3880   -3.4951    0.0000 C   0  0  0  0  0  0  0  0  0  0  0  0
    2.3540   -3.7539    0.0000 C   0  0  0  0  0  0  0  0  0  0  0  0
    3.3199   -3.4951    0.0000 C   0  0  0  0  0  0  0  0  0  0  0  0
    4.0270   -2.7880    0.0000 C   0  0  0  0  0  0  0  0  0  0  0  0
    4.2858   -1.8221    0.0000 C   0  0  0  0  0  0  0  0  0  0  0  0
    4.0270   -0.8561    0.0000 C   0  0  0  0  0  0  0  0  0  0  0  0
    3.3199   -0.1490    0.0000 C   0  0  0  0  0  0  0  0  0  0  0  0
    2.3540    0.1098    0.0000 C   0  0  0  0  0  0  0  0  0  0  0  0
    1.3880   -0.1490    0.0000 C   0  0  0  0  0  0  0  0  0  0  0  0
    1.9134   -1.5381    0.0000 C   0  0  0  0  0  0  0  0  0  0  0  0
    2.8015   -1.0254    0.0000 C   0  0  0  0  0  0  0  0  0  0  0  0
    3.6895   -1.5381    0.0000 P   0  0  0  0  0  0  0  0  0  0  0  0
    3.1768   -2.4261    0.0000 O   0  0  0  0  0  0  0  0  0  0  0  0
    4.5775   -2.0508    0.0000 C   0  0  0  0  0  0  0  0  0  0  0  0
    5.4655   -1.5381    0.0000 C   0  0  0  0  0  0  0  0  0  0  0  0
    6.3536   -2.0508    0.0000 C   0  0  0  0  0  0  0  0  0  0  0  0
    6.3536   -3.0762    0.0000 C   0  0  0  0  0  0  0  0  0  0  0  0
    5.4655   -3.5889    0.0000 C   0  0  0  0  0  0  0  0  0  0  0  0
    4.5775   -3.0762    0.0000 C   0  0  0  0  0  0  0  0  0  0  0  0
    4.2022   -0.6501    0.0000 C   0  0  0  0  0  0  0  0  0  0  0  0
    3.6895    0.2379    0.0000 C   0  0  0  0  0  0  0  0  0  0  0  0
    4.2022    1.1260    0.0000 C   0  0  0  0  0  0  0  0  0  0  0  0
    5.2276    1.1260    0.0000 C   0  0  0  0  0  0  0  0  0  0  0  0
    5.7403    0.2379    0.0000 C   0  0  0  0  0  0  0  0  0  0  0  0
    5.2276   -0.6501    0.0000 C   0  0  0  0  0  0  0  0  0  0  0  0
    1.0254   -1.0254    0.0000 C   0  0  0  0  0  0  0  0  0  0  0  0
    0.0000   -1.0254    0.0000 P   0  0  0  0  0  0  0  0  0  0  0  0
    0.0000   -2.0508    0.0000 O   0  0  0  0  0  0  0  0  0  0  0  0
   -1.0254   -1.0254    0.0000 C   0  0  0  0  0  0  0  0  0  0  0  0
   -1.5381   -0.1374    0.0000 C   0  0  0  0  0  0  0  0  0  0  0  0
   -2.5635   -0.1374    0.0000 C   0  0  0  0  0  0  0  0  0  0  0  0
   -3.0762   -1.0254    0.0000 C   0  0  0  0  0  0  0  0  0  0  0  0
   -2.5635   -1.9134    0.0000 C   0  0  0  0  0  0  0  0  0  0  0  0
   -1.5381   -1.9134    0.0000 C   0  0  0  0  0  0  0  0  0  0  0  0
    0.0000    0.0000    0.0000 C   0  0  0  0  0  0  0  0  0  0  0  0
    0.8880    0.5127    0.0000 C   0  0  0  0  0  0  0  0  0  0  0  0
    0.8880    1.5381    0.0000 C   0  0  0  0  0  0  0  0  0  0  0  0
    0.1327    1.7711    0.0000 C   0  0  0  0  0  0  0  0  0  0  0  0
   -0.5203    1.3258    0.0000 C   0  0  0  0  0  0  0  0  0  0  0  0
   -0.5794    0.5376    0.0000 C   0  0  0  0  0  0  0  0  0  0  0  0
  1  2  2  0  0  0  0
  2  3  1  0  0  0  0
  2 16  1  0  0  0  0
  3  4  1  0  0  0  0
  4 15  1  0  0  0  0
  4  5  1  0  0  0  0
  5  6  1  0  0  0  0
  6  7  1  0  0  0  0
  7  8  1  0  0  0  0
  8  9  1  0  0  0  0
  9 10  1  0  0  0  0
 10 11  1  0  0  0  0
 11 12  1  0  0  0  0
 12 13  1  0  0  0  0
 13 14  1  0  0  0  0
 14 15  1  0  0  0  0
 16 17  1  0  0  0  0
 16 32  1  0  0  0  0
 17 18  1  0  0  0  0
 18 19  2  0  0  0  0
 18 20  1  0  0  0  0
 18 26  1  0  0  0  0
 20 25  1  0  0  0  0
 20 21  2  0  0  0  0
 21 22  1  0  0  0  0
 22 23  2  0  0  0  0
 23 24  1  0  0  0  0
 24 25  2  0  0  0  0
 26 31  1  0  0  0  0
 26 27  2  0  0  0  0
 27 28  1  0  0  0  0
 28 29  2  0  0  0  0
 29 30  1  0  0  0  0
 30 31  2  0  0  0  0
 32 33  1  0  0  0  0
 33 34  2  0  0  0  0
 33 35  1  0  0  0  0
 33 41  1  0  0  0  0
 35 40  1  0  0  0  0
 35 36  2  0  0  0  0
 36 37  1  0  0  0  0
 37 38  2  0  0  0  0
 38 39  1  0  0  0  0
 39 40  2  0  0  0  0
 41 46  1  0  0  0  0
 41 42  2  0  0  0  0
 42 43  1  0  0  0  0
 43 44  2  0  0  0  0
 44 45  1  0  0  0  0
 45 46  2  0  0  0  0
M  END
> <NMREDATA_VERSION>
1.1

> <NMREDATA_LEVEL>
0

> <NMREDATA_SOLVENT>
CDCl3

> <NMREDATA_FORMULA>
C40H48O4P2

> <NMREDATA_SMILES>
O=C(C(CP(=O)(c1ccccc1)c1ccccc1)CP(=O)(c1ccccc1)c1ccccc1)OC1CCCCCCCCCCC1

> <NMREDATA_ASSIGNMENT>
P18, 30.51, 18
P33, 30.51, 33

> <NMREDATA_1D_31P>
Larmor=162
30.51, L=P18
30.51, L=P33

$$$$
