
 OpenBabel06112616492D

 51 54  0  0  1  0  0  0  0  0999 V2000
   12.6735   -0.5000    0.0000 Br   0  5  0  0  0  0  0  0  0  0  0  0
    2.1409   -5.7105    0.0000 C    0  0  0  0  0  0  0  0  0  0  0  0
    2.9613   -6.1842    0.0000 C    0  0  0  0  0  0  0  0  0  0  0  0
    3.7818   -5.7105    0.0000 C    0  0  2  0  0  0  0  0  0  0  0  0
    7.0636   -7.6053    0.0000 C    0  0  0  0  0  0  0  0  0  0  0  0
    7.0636   -8.5526    0.0000 P    0  3  0  0  0  0  0  0  0  0  0  0
    8.0109   -8.5526    0.0000 C    0  0  0  0  0  0  0  0  0  0  0  0
    8.4846   -7.7322    0.0000 C    0  0  0  0  0  0  0  0  0  0  0  0
    9.4320   -7.7322    0.0000 C    0  0  0  0  0  0  0  0  0  0  0  0
    9.9057   -6.9117    0.0000 C    0  0  0  0  0  0  0  0  0  0  0  0
   10.8530   -6.9117    0.0000 C    0  0  0  0  0  0  0  0  0  0  0  0
   11.6735   -7.3854    0.0000 F    0  0  0  0  0  0  0  0  0  0  0  0
   10.8530   -7.8591    0.0000 F    0  0  0  0  0  0  0  0  0  0  0  0
   11.3267   -6.0913    0.0000 F    0  0  0  0  0  0  0  0  0  0  0  0
    9.4320   -6.0913    0.0000 C    0  0  0  0  0  0  0  0  0  0  0  0
    8.4846   -6.0913    0.0000 C    0  0  0  0  0  0  0  0  0  0  0  0
    8.0109   -5.2709    0.0000 C    0  0  0  0  0  0  0  0  0  0  0  0
    8.0109   -4.3235    0.0000 F    0  0  0  0  0  0  0  0  0  0  0  0
    8.8314   -4.7972    0.0000 F    0  0  0  0  0  0  0  0  0  0  0  0
    7.0636   -5.2709    0.0000 F    0  0  0  0  0  0  0  0  0  0  0  0
    8.0109   -6.9117    0.0000 C    0  0  0  0  0  0  0  0  0  0  0  0
    7.0636   -9.5000    0.0000 C    0  0  0  0  0  0  0  0  0  0  0  0
    6.2431   -9.9737    0.0000 C    0  0  0  0  0  0  0  0  0  0  0  0
    6.2431  -10.9211    0.0000 C    0  0  0  0  0  0  0  0  0  0  0  0
    7.0636  -11.3947    0.0000 C    0  0  0  0  0  0  0  0  0  0  0  0
    7.8840  -10.9211    0.0000 C    0  0  0  0  0  0  0  0  0  0  0  0
    7.8840   -9.9737    0.0000 C    0  0  0  0  0  0  0  0  0  0  0  0
    6.1162   -8.5526    0.0000 C    0  0  0  0  0  0  0  0  0  0  0  0
    5.6425   -7.7322    0.0000 C    0  0  0  0  0  0  0  0  0  0  0  0
    4.6951   -7.7322    0.0000 C    0  0  0  0  0  0  0  0  0  0  0  0
    4.2215   -8.5526    0.0000 C    0  0  0  0  0  0  0  0  0  0  0  0
    4.6951   -9.3731    0.0000 C    0  0  0  0  0  0  0  0  0  0  0  0
    5.6425   -9.3731    0.0000 C    0  0  0  0  0  0  0  0  0  0  0  0
    3.7818   -4.7632    0.0000 N    0  0  0  0  0  0  0  0  0  0  0  0
    4.6022   -4.2895    0.0000 C    0  0  0  0  0  0  0  0  0  0  0  0
    5.4227   -4.7632    0.0000 O    0  0  0  0  0  0  0  0  0  0  0  0
    4.6022   -3.3421    0.0000 N    0  0  0  0  0  0  0  0  0  0  0  0
    3.7818   -2.8684    0.0000 C    0  0  0  0  0  0  0  0  0  0  0  0
    3.7818   -1.9211    0.0000 C    0  0  0  0  0  0  0  0  0  0  0  0
    2.9613   -1.4474    0.0000 C    0  0  0  0  0  0  0  0  0  0  0  0
    2.1409   -1.9211    0.0000 C    0  0  0  0  0  0  0  0  0  0  0  0
    1.3204   -1.4474    0.0000 N    0  3  0  0  0  0  0  0  0  0  0  0
    0.5000   -1.9211    0.0000 O    0  0  0  0  0  0  0  0  0  0  0  0
    1.3204   -0.5000    0.0000 O    0  5  0  0  0  0  0  0  0  0  0  0
    2.1409   -2.8684    0.0000 C    0  0  0  0  0  0  0  0  0  0  0  0
    2.9613   -3.3421    0.0000 C    0  0  0  0  0  0  0  0  0  0  0  0
    1.3204   -6.1842    0.0000 C    0  0  0  0  0  0  0  0  0  0  0  0
    0.5000   -5.7105    0.0000 C    0  0  0  0  0  0  0  0  0  0  0  0
    0.5000   -4.7632    0.0000 C    0  0  0  0  0  0  0  0  0  0  0  0
    1.3204   -4.2895    0.0000 C    0  0  0  0  0  0  0  0  0  0  0  0
    2.1409   -4.7632    0.0000 C    0  0  0  0  0  0  0  0  0  0  0  0
  2 51  2  0  0  0  0
  2  3  1  0  0  0  0
  2 47  1  0  0  0  0
  4  3  1  1  0  0  0
  4  5  1  0  0  0  0
  4 34  1  0  0  0  0
  5  6  1  0  0  0  0
  6  7  1  0  0  0  0
  6 22  1  0  0  0  0
  6 28  1  0  0  0  0
  7  8  1  0  0  0  0
  8 21  2  0  0  0  0
  8  9  1  0  0  0  0
  9 10  2  0  0  0  0
 10 11  1  0  0  0  0
 10 15  1  0  0  0  0
 11 12  1  0  0  0  0
 11 13  1  0  0  0  0
 11 14  1  0  0  0  0
 15 16  2  0  0  0  0
 16 17  1  0  0  0  0
 16 21  1  0  0  0  0
 17 18  1  0  0  0  0
 17 19  1  0  0  0  0
 17 20  1  0  0  0  0
 22 27  2  0  0  0  0
 22 23  1  0  0  0  0
 23 24  2  0  0  0  0
 24 25  1  0  0  0  0
 25 26  2  0  0  0  0
 26 27  1  0  0  0  0
 28 33  2  0  0  0  0
 28 29  1  0  0  0  0
 29 30  2  0  0  0  0
 30 31  1  0  0  0  0
 31 32  2  0  0  0  0
 32 33  1  0  0  0  0
 34 35  1  0  0  0  0
 35 36  2  0  0  0  0
 35 37  1  0  0  0  0
 37 38  1  0  0  0  0
 38 46  2  0  0  0  0
 38 39  1  0  0  0  0
 39 40  2  0  0  0  0
 40 41  1  0  0  0  0
 41 42  1  0  0  0  0
 41 45  2  0  0  0  0
 42 43  2  0  0  0  0
 42 44  1  0  0  0  0
 45 46  1  0  0  0  0
 47 48  2  0  0  0  0
 48 49  1  0  0  0  0
 49 50  2  0  0  0  0
 50 51  1  0  0  0  0
M  END
> <NMREDATA_VERSION>
1.1

> <NMREDATA_LEVEL>
0

> <NMREDATA_SOLVENT>
CDCl3

> <NMREDATA_FORMULA>
C37H31BrF6N3O3P

> <NMREDATA_SMILES>
O=C(N[C@@H](CP(c1ccccc1)(c1ccccc1)Cc1cc(cc(c1)C(F)(F)F)C(F)(F)F)Cc1ccccc1)Nc1ccc(cc1)N(=O)O.Br

> <NMREDATA_ASSIGNMENT>
P6, 24.70, 6

> <NMREDATA_1D_31P>
Larmor=162
24.70, L=P6

$$$$
