
 OpenBabel06112616432D

 31 36  0  0  0  0  0  0  0  0999 V2000
    1.0766   -1.5791    0.0000 S   0  0  0  0  0  0  0  0  0  0  0  0
    0.2948   -0.9556    0.0000 P   0  0  0  0  0  0  0  0  0  0  0  0
    1.2256   -0.5902    0.0000 N   0  0  0  0  0  0  0  0  0  0  0  0
    1.3004    0.4070    0.0000 C   0  0  0  0  0  0  0  0  0  0  0  0
    2.1266    0.9703    0.0000 C   0  0  0  0  0  0  0  0  0  0  0  0
    3.0822    0.6755    0.0000 C   0  0  0  0  0  0  0  0  0  0  0  0
    3.4475   -0.2553    0.0000 C   0  0  0  0  0  0  0  0  0  0  0  0
    2.9475   -1.1214    0.0000 C   0  0  0  0  0  0  0  0  0  0  0  0
    1.9587   -1.2704    0.0000 C   0  0  0  0  0  0  0  0  0  0  0  0
   -0.2686   -1.7818    0.0000 O   0  0  0  0  0  0  0  0  0  0  0  0
   -1.2658   -1.8565    0.0000 C   0  0  0  0  0  0  0  0  0  0  0  0
   -1.5605   -2.8121    0.0000 C   0  0  0  0  0  0  0  0  0  0  0  0
   -2.5355   -3.0346    0.0000 C   0  0  0  0  0  0  0  0  0  0  0  0
   -3.2156   -2.3016    0.0000 C   0  0  0  0  0  0  0  0  0  0  0  0
   -4.1906   -2.5241    0.0000 C   0  0  0  0  0  0  0  0  0  0  0  0
   -4.8707   -1.7911    0.0000 C   0  0  0  0  0  0  0  0  0  0  0  0
   -4.5760   -0.8355    0.0000 C   0  0  0  0  0  0  0  0  0  0  0  0
   -3.6010   -0.6130    0.0000 C   0  0  0  0  0  0  0  0  0  0  0  0
   -2.9209   -1.3460    0.0000 C   0  0  0  0  0  0  0  0  0  0  0  0
   -1.9459   -1.1235    0.0000 C   0  0  0  0  0  0  0  0  0  0  0  0
   -1.7969   -0.1347    0.0000 C   0  0  0  0  0  0  0  0  0  0  0  0
   -0.9309    0.3653    0.0000 C   0  0  0  0  0  0  0  0  0  0  0  0
   -0.9309    1.3653    0.0000 C   0  0  0  0  0  0  0  0  0  0  0  0
   -1.7969    1.8653    0.0000 C   0  0  0  0  0  0  0  0  0  0  0  0
   -2.6629    1.3653    0.0000 C   0  0  0  0  0  0  0  0  0  0  0  0
   -3.5289    1.8653    0.0000 C   0  0  0  0  0  0  0  0  0  0  0  0
   -4.3950    1.3653    0.0000 C   0  0  0  0  0  0  0  0  0  0  0  0
   -4.3950    0.3653    0.0000 C   0  0  0  0  0  0  0  0  0  0  0  0
   -3.5289   -0.1347    0.0000 C   0  0  0  0  0  0  0  0  0  0  0  0
   -2.6629    0.3653    0.0000 C   0  0  0  0  0  0  0  0  0  0  0  0
    0.0000    0.0000    0.0000 O   0  0  0  0  0  0  0  0  0  0  0  0
  1  2  2  0  0  0  0
  2 31  1  0  0  0  0
  2  3  1  0  0  0  0
  2 10  1  0  0  0  0
  3  9  1  0  0  0  0
  3  4  1  0  0  0  0
  4  5  1  0  0  0  0
  5  6  1  0  0  0  0
  6  7  1  0  0  0  0
  7  8  1  0  0  0  0
  8  9  1  0  0  0  0
 10 11  1  0  0  0  0
 11 20  2  0  0  0  0
 11 12  1  0  0  0  0
 12 13  2  0  0  0  0
 13 14  1  0  0  0  0
 14 19  2  0  0  0  0
 14 15  1  0  0  0  0
 15 16  2  0  0  0  0
 16 17  1  0  0  0  0
 17 18  2  0  0  0  0
 18 19  1  0  0  0  0
 19 20  1  0  0  0  0
 20 21  1  0  0  0  0
 21 30  2  0  0  0  0
 21 22  1  0  0  0  0
 22 23  2  0  0  0  0
 22 31  1  0  0  0  0
 23 24  1  0  0  0  0
 24 25  2  0  0  0  0
 25 30  1  0  0  0  0
 25 26  1  0  0  0  0
 26 27  2  0  0  0  0
 27 28  1  0  0  0  0
 28 29  2  0  0  0  0
 29 30  1  0  0  0  0
M  END
> <NMREDATA_VERSION>
1.1

> <NMREDATA_LEVEL>
0

> <NMREDATA_SOLVENT>
CDCl3

> <NMREDATA_FORMULA>
C26H24NO2PS

> <NMREDATA_SMILES>
S=P1(Oc2ccc3c(c2-c2c(O1)ccc1c2cccc1)cccc3)N1CCCCCC1

> <NMREDATA_ASSIGNMENT>
P2, 83.40, 2

> <NMREDATA_1D_31P>
Larmor=202
83.40, L=P2

$$$$
