
 OpenBabel06112616452D

 31 35  0  0  0  0  0  0  0  0999 V2000
    2.5055    2.2560    0.0000 C   0  0  0  0  0  0  0  0  0  0  0  0
    2.2047    1.3303    0.0000 C   0  0  0  0  0  0  0  0  0  0  0  0
    2.8560    0.6071    0.0000 C   0  0  0  0  0  0  0  0  0  0  0  0
    2.5552   -0.3186    0.0000 C   0  0  0  0  0  0  0  0  0  0  0  0
    3.2065   -1.0418    0.0000 C   0  0  0  0  0  0  0  0  0  0  0  0
    1.6032   -0.5209    0.0000 C   0  0  0  0  0  0  0  0  0  0  0  0
    0.9520    0.2024    0.0000 C   0  0  0  0  0  0  0  0  0  0  0  0
    0.0000    0.0000    0.0000 P   0  0  0  0  0  0  0  0  0  0  0  0
   -0.2024    0.9520    0.0000 O   0  0  0  0  0  0  0  0  0  0  0  0
   -0.9520   -0.2024    0.0000 C   0  0  0  0  0  0  0  0  0  0  0  0
   -1.6032    0.5209    0.0000 C   0  0  0  0  0  0  0  0  0  0  0  0
   -2.5552    0.3186    0.0000 C   0  0  0  0  0  0  0  0  0  0  0  0
   -3.2065    1.0418    0.0000 C   0  0  0  0  0  0  0  0  0  0  0  0
   -2.6225   -0.4286    0.0000 C   0  0  0  0  0  0  0  0  0  0  0  0
   -2.0802   -0.9471    0.0000 C   0  0  0  0  0  0  0  0  0  0  0  0
   -2.3810   -1.8727    0.0000 C   0  0  0  0  0  0  0  0  0  0  0  0
   -1.3368   -0.8464    0.0000 C   0  0  0  0  0  0  0  0  0  0  0  0
    0.0000   -1.9465    0.0000 N   0  0  0  0  0  0  0  0  0  0  0  0
   -0.8428   -2.4332    0.0000 C   0  0  0  0  0  0  0  0  0  0  0  0
   -1.6862   -1.9465    0.0000 C   0  0  0  0  0  0  0  0  0  0  0  0
   -2.5290   -2.4332    0.0000 C   0  0  0  0  0  0  0  0  0  0  0  0
   -2.5290   -3.4071    0.0000 C   0  0  0  0  0  0  0  0  0  0  0  0
   -1.6862   -3.8938    0.0000 C   0  0  0  0  0  0  0  0  0  0  0  0
   -0.8428   -3.4071    0.0000 C   0  0  0  0  0  0  0  0  0  0  0  0
    0.8433   -3.4071    0.0000 C   0  0  0  0  0  0  0  0  0  0  0  0
    1.6867   -3.8938    0.0000 C   0  0  0  0  0  0  0  0  0  0  0  0
    2.5295   -3.4071    0.0000 C   0  0  0  0  0  0  0  0  0  0  0  0
    2.5295   -2.4332    0.0000 C   0  0  0  0  0  0  0  0  0  0  0  0
    1.6867   -1.9465    0.0000 C   0  0  0  0  0  0  0  0  0  0  0  0
    0.8433   -2.4332    0.0000 C   0  0  0  0  0  0  0  0  0  0  0  0
    1.1686    1.2214    0.0000 C   0  0  0  0  0  0  0  0  0  0  0  0
  1  2  1  0  0  0  0
  2 31  2  0  0  0  0
  2  3  1  0  0  0  0
  3  4  2  0  0  0  0
  4  5  1  0  0  0  0
  4  6  1  0  0  0  0
  6  7  2  0  0  0  0
  7  8  1  0  0  0  0
  7 31  1  0  0  0  0
  8  9  2  0  0  0  0
  8 10  1  0  0  0  0
  8 18  1  0  0  0  0
 10 17  2  0  0  0  0
 10 11  1  0  0  0  0
 11 12  2  0  0  0  0
 12 13  1  0  0  0  0
 12 14  1  0  0  0  0
 14 15  2  0  0  0  0
 15 16  1  0  0  0  0
 15 17  1  0  0  0  0
 18 30  1  0  0  0  0
 18 19  1  0  0  0  0
 19 24  2  0  0  0  0
 19 20  1  0  0  0  0
 20 21  2  0  0  0  0
 21 22  1  0  0  0  0
 22 23  2  0  0  0  0
 23 24  1  0  0  0  0
 24 25  1  0  0  0  0
 25 30  2  0  0  0  0
 25 26  1  0  0  0  0
 26 27  2  0  0  0  0
 27 28  1  0  0  0  0
 28 29  2  0  0  0  0
 29 30  1  0  0  0  0
M  END
> <NMREDATA_VERSION>
1.1

> <NMREDATA_LEVEL>
0

> <NMREDATA_SOLVENT>
CDCl3

> <NMREDATA_FORMULA>
C28H26NOP

> <NMREDATA_SMILES>
Cc1cc(C)cc(c1)P(=O)(n1c2ccccc2c2c1cccc2)c1cc(C)cc(c1)C

> <NMREDATA_ASSIGNMENT>
P8, 27.90, 8

> <NMREDATA_1D_31P>
Larmor=162
27.90, L=P8

$$$$
