
 OpenBabel06112616482D

 28 30  0  0  1  0  0  0  0  0999 V2000
    6.6369    0.8660    0.0000 O    0  0  0  0  0  0  0  0  0  0  0  0
    5.7709    0.3660    0.0000 C    0  0  0  0  0  0  0  0  0  0  0  0
    5.7709   -0.6340    0.0000 C    0  0  0  0  0  0  0  0  0  0  0  0
    4.9049   -1.1340    0.0000 C    0  0  0  0  0  0  0  0  0  0  0  0
    4.0388   -0.6340    0.0000 C    0  0  0  0  0  0  0  0  0  0  0  0
    3.0878   -0.9430    0.0000 N    0  0  0  0  0  0  0  0  0  0  0  0
    2.5000   -0.1340    0.0000 C    0  0  0  0  0  0  0  0  0  0  0  0
    1.5000   -0.1340    0.0000 N    0  0  0  0  0  0  0  0  0  0  0  0
    1.0000   -1.0000    0.0000 C    0  0  3  0  0  0  0  0  0  0  0  0
    1.5000   -1.8660    0.0000 C    0  0  0  0  0  0  0  0  0  0  0  0
    1.0000   -2.7321    0.0000 C    0  0  0  0  0  0  0  0  0  0  0  0
    1.5000   -3.5981    0.0000 C    0  0  0  0  0  0  0  0  0  0  0  0
    2.5000   -3.5981    0.0000 C    0  0  0  0  0  0  0  0  0  0  0  0
    3.0000   -4.4641    0.0000 Cl   0  0  0  0  0  0  0  0  0  0  0  0
    3.0000   -2.7321    0.0000 C    0  0  0  0  0  0  0  0  0  0  0  0
    2.5000   -1.8660    0.0000 C    0  0  0  0  0  0  0  0  0  0  0  0
    0.0000   -1.0000    0.0000 P    0  0  0  0  0  0  0  0  0  0  0  0
    0.0000   -2.0000    0.0000 O    0  0  0  0  0  0  0  0  0  0  0  0
   -1.0000   -1.0000    0.0000 O    0  0  0  0  0  0  0  0  0  0  0  0
   -1.5000   -1.8660    0.0000 C    0  0  0  0  0  0  0  0  0  0  0  0
   -1.0000   -2.7321    0.0000 C    0  0  0  0  0  0  0  0  0  0  0  0
    0.0000    0.0000    0.0000 O    0  0  0  0  0  0  0  0  0  0  0  0
   -0.8660    0.5000    0.0000 C    0  0  0  0  0  0  0  0  0  0  0  0
   -1.7321    0.0000    0.0000 C    0  0  0  0  0  0  0  0  0  0  0  0
    3.0878    0.6750    0.0000 S    0  0  0  0  0  0  0  0  0  0  0  0
    4.0388    0.3660    0.0000 C    0  0  0  0  0  0  0  0  0  0  0  0
    4.9049    0.8660    0.0000 C    0  0  0  0  0  0  0  0  0  0  0  0
    7.5029    0.3660    0.0000 C    0  0  0  0  0  0  0  0  0  0  0  0
  1  2  1  0  0  0  0
  1 28  1  0  0  0  0
  2 27  2  0  0  0  0
  2  3  1  0  0  0  0
  3  4  2  0  0  0  0
  4  5  1  0  0  0  0
  5 26  2  0  0  0  0
  5  6  1  0  0  0  0
  6  7  2  0  0  0  0
  7  8  1  0  0  0  0
  7 25  1  0  0  0  0
  8  9  1  0  0  0  0
  9 10  1  0  0  0  0
  9 17  1  0  0  0  0
 10 16  2  0  0  0  0
 10 11  1  0  0  0  0
 11 12  2  0  0  0  0
 12 13  1  0  0  0  0
 13 14  1  0  0  0  0
 13 15  2  0  0  0  0
 15 16  1  0  0  0  0
 17 18  2  0  0  0  0
 17 19  1  0  0  0  0
 17 22  1  0  0  0  0
 19 20  1  0  0  0  0
 20 21  1  0  0  0  0
 22 23  1  0  0  0  0
 23 24  1  0  0  0  0
 25 26  1  0  0  0  0
 26 27  1  0  0  0  0
M  END
> <NMREDATA_VERSION>
1.1

> <NMREDATA_LEVEL>
0

> <NMREDATA_SOLVENT>
CDCl3

> <NMREDATA_FORMULA>
C19H22ClN2O4PS

> <NMREDATA_SMILES>
CCOP(=O)(C(c1ccc(cc1)Cl)Nc1nc2c(s1)cc(cc2)OC)OCC

> <NMREDATA_ASSIGNMENT>
P17, 20.54, 17

> <NMREDATA_1D_31P>
Larmor=200
20.54, L=P17

$$$$
