
 OpenBabel06112616432D

 83 88  0  0  1  0  0  0  0  0999 V2000
    5.0086   -8.3658    0.0000 C   0  0  0  0  0  0  0  0  0  0  0  0
    4.2654   -7.6967    0.0000 C   0  0  0  0  0  0  0  0  0  0  0  0
    3.3144   -8.0057    0.0000 C   0  0  1  0  0  0  0  0  0  0  0  0
    3.1064   -8.9839    0.0000 C   0  0  0  0  0  0  0  0  0  0  0  0
    2.5712   -7.3366    0.0000 C   0  0  0  0  0  0  0  0  0  0  0  0
    2.7791   -6.3584    0.0000 C   0  0  0  0  0  0  0  0  0  0  0  0
    2.0360   -5.6893    0.0000 C   0  0  0  0  0  0  0  0  0  0  0  0
    1.0849   -5.9983    0.0000 C   0  0  3  0  0  0  0  0  0  0  0  0
    0.8770   -6.9765    0.0000 C   0  0  0  0  0  0  0  0  0  0  0  0
    0.3418   -5.3292    0.0000 C   0  0  0  0  0  0  0  0  0  0  0  0
   -0.6093   -5.6382    0.0000 C   0  0  0  0  0  0  0  0  0  0  0  0
   -0.8172   -6.6164    0.0000 C   0  0  0  0  0  0  0  0  0  0  0  0
   -1.3524   -4.9691    0.0000 C   0  0  0  0  0  0  0  0  0  0  0  0
   -1.1445   -3.9909    0.0000 C   0  0  0  0  0  0  0  0  0  0  0  0
   -1.8877   -3.3218    0.0000 C   0  0  0  0  0  0  0  0  0  0  0  0
   -2.8387   -3.6308    0.0000 O   0  0  0  0  0  0  0  0  0  0  0  0
   -1.6797   -2.3437    0.0000 N   0  0  0  0  0  0  0  0  0  0  0  0
   -2.4229   -1.6745    0.0000 C   0  0  0  0  0  0  0  0  0  0  0  0
   -2.2150   -0.6964    0.0000 C   0  0  0  0  0  0  0  0  0  0  0  0
   -2.9581   -0.0273    0.0000 O   0  0  0  0  0  0  0  0  0  0  0  0
   -1.2639   -0.3874    0.0000 N   0  0  0  0  0  0  0  0  0  0  0  0
   -0.5208   -1.0565    0.0000 C   0  0  2  0  0  0  0  0  0  0  0  0
   -0.7287   -2.0346    0.0000 C   0  0  1  0  0  0  0  0  0  0  0  0
   -1.6797   -2.3437    0.0000 O   0  0  0  0  0  0  0  0  0  0  0  0
    0.0145   -2.7038    0.0000 C   0  0  3  0  0  0  0  0  0  0  0  0
   -0.1935   -3.6819    0.0000 O   0  0  0  0  0  0  0  0  0  0  0  0
    0.9655   -2.3948    0.0000 C   0  0  3  0  0  0  0  0  0  0  0  0
    1.7087   -3.0639    0.0000 C   0  0  0  0  0  0  0  0  0  0  0  0
    1.5007   -4.0420    0.0000 O   0  0  0  0  0  0  0  0  0  0  0  0
    1.1734   -1.4166    0.0000 O   0  0  0  0  0  0  0  0  0  0  0  0
    0.4303   -0.7475    0.0000 C   0  0  1  0  0  0  0  0  0  0  0  0
    0.6382    0.2307    0.0000 O   0  0  0  0  0  0  0  0  0  0  0  0
   -0.1050    0.8998    0.0000 P   0  0  3  0  0  0  0  0  0  0  0  0
   -0.7741    0.1567    0.0000 O   0  0  0  0  0  0  0  0  0  0  0  0
   -0.8481    1.5689    0.0000 O   0  5  0  0  0  0  0  0  0  0  0  0
    0.5642    1.6429    0.0000 O   0  0  0  0  0  0  0  0  0  0  0  0
    0.2552    2.5940    0.0000 C   0  0  1  0  0  0  0  0  0  0  0  0
    0.9243    3.3371    0.0000 C   0  0  1  0  0  0  0  0  0  0  0  0
    1.9024    3.1292    0.0000 C   0  0  0  0  0  0  0  0  0  0  0  0
    2.2115    2.1782    0.0000 C   0  0  1  0  0  0  0  0  0  0  0  0
    1.6237    1.3692    0.0000 O   0  0  0  0  0  0  0  0  0  0  0  0
    2.2115    0.5601    0.0000 C   0  0  1  0  0  0  0  0  0  0  0  0
    1.9024   -0.3909    0.0000 N   0  0  0  0  0  0  0  0  0  0  0  0
    0.9243   -0.5988    0.0000 C   0  0  0  0  0  0  0  0  0  0  0  0
    0.2552    0.1443    0.0000 O   0  0  0  0  0  0  0  0  0  0  0  0
    0.6153   -1.5499    0.0000 N   0  0  0  0  0  0  0  0  0  0  0  0
    1.2844   -2.2930    0.0000 C   0  0  0  0  0  0  0  0  0  0  0  0
    0.9754   -3.2441    0.0000 O   0  0  0  0  0  0  0  0  0  0  0  0
    2.2626   -2.0851    0.0000 C   0  0  0  0  0  0  0  0  0  0  0  0
    2.5716   -1.1341    0.0000 C   0  0  0  0  0  0  0  0  0  0  0  0
    3.1625    0.8692    0.0000 C   0  0  1  0  0  0  0  0  0  0  0  0
    4.1136    0.5601    0.0000 O   0  0  0  0  0  0  0  0  0  0  0  0
    4.7014    1.3692    0.0000 C   0  0  0  0  0  0  0  0  0  0  0  0
    5.5674    1.8692    0.0000 C   0  0  0  0  0  0  0  0  0  0  0  0
    5.5674    0.8692    0.0000 C   0  0  0  0  0  0  0  0  0  0  0  0
    4.1136    2.1782    0.0000 O   0  0  0  0  0  0  0  0  0  0  0  0
    3.1625    1.8692    0.0000 C   0  0  1  0  0  0  0  0  0  0  0  0
    0.6153    4.2882    0.0000 O   0  0  0  0  0  0  0  0  0  0  0  0
   -0.3629    4.4961    0.0000 C   0  0  2  0  0  0  0  0  0  0  0  0
   -0.6719    5.4472    0.0000 O   0  0  0  0  0  0  0  0  0  0  0  0
   -1.6500    5.6551    0.0000 C   0  0  2  0  0  0  0  0  0  0  0  0
   -1.9591    6.6061    0.0000 C   0  0  0  0  0  0  0  0  0  0  0  0
   -2.9372    6.8140    0.0000 O   0  0  0  0  0  0  0  0  0  0  0  0
   -2.3192    4.9119    0.0000 C   0  0  1  0  0  0  0  0  0  0  0  0
   -3.2973    5.1198    0.0000 O   0  0  0  0  0  0  0  0  0  0  0  0
   -2.0102    3.9609    0.0000 C   0  0  2  0  0  0  0  0  0  0  0  0
   -2.6793    3.2177    0.0000 O   0  0  0  0  0  0  0  0  0  0  0  0
   -1.0320    3.7530    0.0000 C   0  0  1  0  0  0  0  0  0  0  0  0
   -0.7230    2.8019    0.0000 O   0  0  0  0  0  0  0  0  0  0  0  0
   -0.7230    2.8019    0.0000 C   0  0  0  0  0  0  0  0  0  0  0  0
   -1.3921    2.0588    0.0000 O   0  0  0  0  0  0  0  0  0  0  0  0
   -1.0320    3.7530    0.0000 O   0  0  0  0  0  0  0  0  0  0  0  0
   -2.0102    3.9609    0.0000 C   0  0  1  0  0  0  0  0  0  0  0  0
   -2.3192    4.9119    0.0000 C   0  0  3  0  0  0  0  0  0  0  0  0
   -1.6500    5.6551    0.0000 O   0  0  0  0  0  0  0  0  0  0  0  0
   -3.2973    5.1198    0.0000 C   0  0  3  0  0  0  0  0  0  0  0  0
   -3.6063    6.0709    0.0000 O   0  0  0  0  0  0  0  0  0  0  0  0
   -3.9664    4.3767    0.0000 C   0  0  3  0  0  0  0  0  0  0  0  0
   -4.9446    4.5846    0.0000 O   0  0  0  0  0  0  0  0  0  0  0  0
   -3.6574    3.4256    0.0000 C   0  0  3  0  0  0  0  0  0  0  0  0
   -4.3266    2.6825    0.0000 C   0  0  0  0  0  0  0  0  0  0  0  0
   -4.0175    1.7314    0.0000 O   0  0  0  0  0  0  0  0  0  0  0  0
   -2.6793    3.2177    0.0000 O   0  0  0  0  0  0  0  0  0  0  0  0
  1  2  1  0  0  0  0
  2  3  1  0  0  0  0
  3  4  1  1  0  0  0
  3  5  1  0  0  0  0
  5  6  1  0  0  0  0
  6  7  1  0  0  0  0
  7  8  1  0  0  0  0
  8  9  1  0  0  0  0
  8 10  1  0  0  0  0
 10 11  2  0  0  0  0
 11 12  1  0  0  0  0
 11 13  1  0  0  0  0
 13 14  2  0  0  0  0
 14 15  1  0  0  0  0
 15 16  2  0  0  0  0
 15 17  1  0  0  0  0
 17 18  1  0  0  0  0
 18 19  1  0  0  0  0
 19 20  2  0  0  0  0
 19 21  1  0  0  0  0
 22 21  1  1  0  0  0
 22 23  1  0  0  0  0
 22 31  1  0  0  0  0
 23 24  1  6  0  0  0
 23 25  1  0  0  0  0
 25 26  1  0  0  0  0
 25 27  1  0  0  0  0
 27 28  1  0  0  0  0
 27 30  1  0  0  0  0
 28 29  1  0  0  0  0
 30 31  1  0  0  0  0
 31 32  1  6  0  0  0
 32 33  1  0  0  0  0
 33 34  2  0  0  0  0
 33 35  1  0  0  0  0
 33 36  1  0  0  0  0
 37 36  1  6  0  0  0
 37 38  1  0  0  0  0
 37 70  1  0  0  0  0
 38 39  1  6  0  0  0
 38 58  1  0  0  0  0
 40 39  1  6  0  0  0
 40 41  1  0  0  0  0
 40 57  1  0  0  0  0
 41 42  1  0  0  0  0
 42 43  1  6  0  0  0
 42 51  1  0  0  0  0
 43 50  1  0  0  0  0
 43 44  1  0  0  0  0
 44 45  2  0  0  0  0
 44 46  1  0  0  0  0
 46 47  1  0  0  0  0
 47 48  2  0  0  0  0
 47 49  1  0  0  0  0
 49 50  2  0  0  0  0
 51 52  1  6  0  0  0
 51 57  1  0  0  0  0
 52 53  1  0  0  0  0
 53 54  1  0  0  0  0
 53 55  1  0  0  0  0
 53 56  1  0  0  0  0
 57 56  1  6  0  0  0
 59 58  1  1  0  0  0
 59 60  1  0  0  0  0
 59 68  1  0  0  0  0
 60 61  1  0  0  0  0
 61 62  1  1  0  0  0
 61 64  1  0  0  0  0
 62 63  1  0  0  0  0
 64 65  1  6  0  0  0
 64 66  1  0  0  0  0
 66 67  1  1  0  0  0
 66 68  1  0  0  0  0
 68 69  1  6  0  0  0
 70 71  2  0  0  0  0
 70 72  1  0  0  0  0
 73 72  1  6  0  0  0
 73 74  1  0  0  0  0
 73 83  1  0  0  0  0
 74 75  1  0  0  0  0
 74 76  1  0  0  0  0
 76 77  1  0  0  0  0
 76 78  1  0  0  0  0
 78 79  1  0  0  0  0
 78 80  1  0  0  0  0
 80 81  1  0  0  0  0
 80 83  1  0  0  0  0
 81 82  1  0  0  0  0
M  END
> <NMREDATA_VERSION>
1.1

> <NMREDATA_LEVEL>
0

> <NMREDATA_SOLVENT>
CD3OD

> <NMREDATA_FORMULA>
C50H78N4O28P

> <NMREDATA_SMILES>
CC[C@H](CCCC(/C=C(/C=C/C(=O)NCC(=O)N[C@H]1[C@@H](OC(C([C@@H]1O)O)CO)OP(=O)(O[C@@H]([C@@H](C[C@H]1O[C@H]([C@@H]2[C@H]1OC(O2)(C)C)n1ccc(=O)[nH]c1=O)O[C@@H]1O[C@H](CO)[C@H]([C@@H]([C@H]1O)O)O)C(=O)O[C@@H]1OC(CO)C(C(C1O)O)O)[O-])\C)C)C

> <NMREDATA_ASSIGNMENT>
P33, -0.84, 33

> <NMREDATA_1D_31P>
Larmor=243
-0.84, L=P33

$$$$
