
 OpenBabel06112616472D

 38 42  0  0  0  0  0  0  0  0999 V2000
    1.6918    0.0000    0.0000 C   0  0  0  0  0  0  0  0  0  0  0  0
    0.8459   -0.4884    0.0000 C   0  0  0  0  0  0  0  0  0  0  0  0
    0.8459   -1.4651    0.0000 C   0  0  0  0  0  0  0  0  0  0  0  0
    0.0000   -1.9535    0.0000 C   0  0  0  0  0  0  0  0  0  0  0  0
   -0.8459   -1.4651    0.0000 C   0  0  0  0  0  0  0  0  0  0  0  0
   -1.6918   -1.9535    0.0000 O   0  0  0  0  0  0  0  0  0  0  0  0
   -2.5377   -1.4651    0.0000 C   0  0  0  0  0  0  0  0  0  0  0  0
   -2.5377   -0.4884    0.0000 O   0  0  0  0  0  0  0  0  0  0  0  0
   -3.3835   -1.9535    0.0000 C   0  0  0  0  0  0  0  0  0  0  0  0
   -3.8719   -2.7994    0.0000 C   0  0  0  0  0  0  0  0  0  0  0  0
   -2.8952   -2.7994    0.0000 C   0  0  0  0  0  0  0  0  0  0  0  0
   -4.2294   -1.4651    0.0000 C   0  0  0  0  0  0  0  0  0  0  0  0
   -4.2294   -0.4884    0.0000 C   0  0  0  0  0  0  0  0  0  0  0  0
   -5.0753    0.0000    0.0000 C   0  0  0  0  0  0  0  0  0  0  0  0
   -5.9212   -0.4884    0.0000 C   0  0  0  0  0  0  0  0  0  0  0  0
   -5.9212   -1.4651    0.0000 C   0  0  0  0  0  0  0  0  0  0  0  0
   -6.7671   -1.9535    0.0000 C   0  0  0  0  0  0  0  0  0  0  0  0
   -6.7671   -2.9302    0.0000 C   0  0  0  0  0  0  0  0  0  0  0  0
   -7.6130   -3.4186    0.0000 C   0  0  0  0  0  0  0  0  0  0  0  0
   -8.4589   -2.9302    0.0000 C   0  0  0  0  0  0  0  0  0  0  0  0
   -8.4589   -1.9535    0.0000 C   0  0  0  0  0  0  0  0  0  0  0  0
   -7.6130   -1.4651    0.0000 C   0  0  0  0  0  0  0  0  0  0  0  0
   -7.6130    0.4884    0.0000 P   0  0  0  0  0  0  0  0  0  0  0  0
   -6.7671    0.9767    0.0000 C   0  0  0  0  0  0  0  0  0  0  0  0
   -6.7671    1.9535    0.0000 C   0  0  0  0  0  0  0  0  0  0  0  0
   -5.9212    2.4419    0.0000 C   0  0  0  0  0  0  0  0  0  0  0  0
   -5.0753    1.9535    0.0000 C   0  0  0  0  0  0  0  0  0  0  0  0
   -5.0753    0.9767    0.0000 C   0  0  0  0  0  0  0  0  0  0  0  0
   -5.9212    0.4884    0.0000 C   0  0  0  0  0  0  0  0  0  0  0  0
   -8.4589    0.9767    0.0000 C   0  0  0  0  0  0  0  0  0  0  0  0
   -9.3047    0.4884    0.0000 C   0  0  0  0  0  0  0  0  0  0  0  0
  -10.1506    0.9767    0.0000 C   0  0  0  0  0  0  0  0  0  0  0  0
  -10.1506    1.9535    0.0000 C   0  0  0  0  0  0  0  0  0  0  0  0
   -9.3047    2.4419    0.0000 C   0  0  0  0  0  0  0  0  0  0  0  0
   -8.4589    1.9535    0.0000 C   0  0  0  0  0  0  0  0  0  0  0  0
   -5.0753   -1.9535    0.0000 C   0  0  0  0  0  0  0  0  0  0  0  0
   -0.8459   -0.4884    0.0000 C   0  0  0  0  0  0  0  0  0  0  0  0
    0.0000    0.0000    0.0000 C   0  0  0  0  0  0  0  0  0  0  0  0
  1  2  1  0  0  0  0
  2 38  2  0  0  0  0
  2  3  1  0  0  0  0
  3  4  2  0  0  0  0
  4  5  1  0  0  0  0
  5  6  1  0  0  0  0
  5 37  2  0  0  0  0
  6  7  1  0  0  0  0
  7  8  2  0  0  0  0
  7  9  1  0  0  0  0
  9 10  1  0  0  0  0
  9 11  1  0  0  0  0
  9 12  1  0  0  0  0
 12 36  2  0  0  0  0
 12 13  1  0  0  0  0
 13 14  2  0  0  0  0
 14 15  1  0  0  0  0
 15 16  2  0  0  0  0
 16 17  1  0  0  0  0
 16 36  1  0  0  0  0
 17 22  2  0  0  0  0
 17 18  1  0  0  0  0
 18 19  2  0  0  0  0
 19 20  1  0  0  0  0
 20 21  2  0  0  0  0
 21 22  1  0  0  0  0
 22 23  1  0  0  0  0
 23 24  1  0  0  0  0
 23 30  1  0  0  0  0
 24 29  2  0  0  0  0
 24 25  1  0  0  0  0
 25 26  2  0  0  0  0
 26 27  1  0  0  0  0
 27 28  2  0  0  0  0
 28 29  1  0  0  0  0
 30 35  2  0  0  0  0
 30 31  1  0  0  0  0
 31 32  2  0  0  0  0
 32 33  1  0  0  0  0
 33 34  2  0  0  0  0
 34 35  1  0  0  0  0
 37 38  1  0  0  0  0
M  END
> <NMREDATA_VERSION>
1.1

> <NMREDATA_LEVEL>
0

> <NMREDATA_SOLVENT>
CDCl3

> <NMREDATA_FORMULA>
C35H31O2P

> <NMREDATA_SMILES>
Cc1ccc(cc1)OC(=O)C(c1cccc(c1)c1ccccc1P(c1ccccc1)c1ccccc1)(C)C

> <NMREDATA_ASSIGNMENT>
P23, -13.07, 23

> <NMREDATA_1D_31P>
Larmor=162
-13.07, L=P23

$$$$
