
 OpenBabel06112616452D

 22 24  0  0  0  0  0  0  0  0999 V2000
    5.1841   -3.3759    0.0000 C   0  0  0  0  0  0  0  0  0  0  0  0
    5.1841   -2.3759    0.0000 O   0  0  0  0  0  0  0  0  0  0  0  0
    4.3180   -1.8759    0.0000 C   0  0  0  0  0  0  0  0  0  0  0  0
    3.4520   -2.3759    0.0000 C   0  0  0  0  0  0  0  0  0  0  0  0
    3.4520   -3.3759    0.0000 O   0  0  0  0  0  0  0  0  0  0  0  0
    2.5860   -3.8759    0.0000 C   0  0  0  0  0  0  0  0  0  0  0  0
    2.5860   -1.8759    0.0000 C   0  0  0  0  0  0  0  0  0  0  0  0
    2.5860   -0.8759    0.0000 C   0  0  0  0  0  0  0  0  0  0  0  0
    1.6551   -0.5105    0.0000 P   0  0  1  0  0  0  0  0  0  0  0  0
    1.3603    0.4450    0.0000 O   0  0  0  0  0  0  0  0  0  0  0  0
    1.9237    1.2713    0.0000 C   0  0  0  0  0  0  0  0  0  0  0  0
    2.9209    1.3460    0.0000 C   0  0  0  0  0  0  0  0  0  0  0  0
    3.6010    0.6130    0.0000 C   0  0  0  0  0  0  0  0  0  0  0  0
    3.4520   -0.3759    0.0000 C   0  0  0  0  0  0  0  0  0  0  0  0
    4.3180   -0.8759    0.0000 C   0  0  0  0  0  0  0  0  0  0  0  0
    0.6802   -0.7331    0.0000 C   0  0  0  0  0  0  0  0  0  0  0  0
    0.3854   -1.6886    0.0000 C   0  0  0  0  0  0  0  0  0  0  0  0
   -0.5895   -1.9111    0.0000 C   0  0  0  0  0  0  0  0  0  0  0  0
   -1.2697   -1.1781    0.0000 C   0  0  0  0  0  0  0  0  0  0  0  0
   -0.9749   -0.2225    0.0000 C   0  0  0  0  0  0  0  0  0  0  0  0
    0.0000    0.0000    0.0000 C   0  0  0  0  0  0  0  0  0  0  0  0
    1.3603   -1.4661    0.0000 O   0  0  0  0  0  0  0  0  0  0  0  0
  1  2  1  0  0  0  0
  2  3  1  0  0  0  0
  3 15  2  0  0  0  0
  3  4  1  0  0  0  0
  4  5  1  0  0  0  0
  4  7  2  0  0  0  0
  5  6  1  0  0  0  0
  7  8  1  0  0  0  0
  8 14  2  0  0  0  0
  8  9  1  0  0  0  0
  9 10  1  0  0  0  0
  9 16  1  0  0  0  0
  9 22  2  1  0  0  0
 10 11  1  0  0  0  0
 11 12  1  0  0  0  0
 12 13  1  0  0  0  0
 13 14  1  0  0  0  0
 14 15  1  0  0  0  0
 16 21  2  0  0  0  0
 16 17  1  0  0  0  0
 17 18  2  0  0  0  0
 18 19  1  0  0  0  0
 19 20  2  0  0  0  0
 20 21  1  0  0  0  0
M  END
> <NMREDATA_VERSION>
1.1

> <NMREDATA_LEVEL>
0

> <NMREDATA_SOLVENT>
CDCl3

> <NMREDATA_FORMULA>
C17H19O4P

> <NMREDATA_SMILES>
COc1cc2c(cc1OC)CCCO[P@@]2(=O)c1ccccc1

> <NMREDATA_ASSIGNMENT>
P9, 38.10, 9

> <NMREDATA_1D_31P>
Larmor=202
38.10, L=P9

$$$$
