
 OpenBabel06112616462D

 31 35  0  0  1  0  0  0  0  0999 V2000
    0.9722   -2.9167    0.0000 C   0  0  0  0  0  0  0  0  0  0  0  0
    0.1303   -2.4306    0.0000 C   0  0  0  0  0  0  0  0  0  0  0  0
    0.1303   -1.4583    0.0000 C   0  0  0  0  0  0  0  0  0  0  0  0
    0.9722   -0.9722    0.0000 C   0  0  0  0  0  0  0  0  0  0  0  0
    0.9722    0.0000    0.0000 P   0  0  0  0  0  0  0  0  0  0  0  0
    2.9167    0.0000    0.0000 C   0  0  0  0  0  0  0  0  0  0  0  0
    3.4028    0.8420    0.0000 C   0  0  0  0  0  0  0  0  0  0  0  0
    4.3750    0.8420    0.0000 C   0  0  0  0  0  0  0  0  0  0  0  0
    4.8611    0.0000    0.0000 C   0  0  0  0  0  0  0  0  0  0  0  0
    4.3750   -0.8420    0.0000 C   0  0  0  0  0  0  0  0  0  0  0  0
    3.4028   -0.8420    0.0000 C   0  0  0  0  0  0  0  0  0  0  0  0
    0.9722    0.9722    0.0000 C   0  0  3  0  0  0  0  0  0  0  0  0
    0.1303    1.4583    0.0000 N   0  0  0  0  0  0  0  0  0  0  0  0
   -0.7117    0.9722    0.0000 C   0  0  0  0  0  0  0  0  0  0  0  0
   -0.7117    0.0000    0.0000 C   0  0  0  0  0  0  0  0  0  0  0  0
   -1.5537   -0.4861    0.0000 C   0  0  0  0  0  0  0  0  0  0  0  0
   -2.3957    0.0000    0.0000 C   0  0  0  0  0  0  0  0  0  0  0  0
   -2.3957    0.9722    0.0000 C   0  0  0  0  0  0  0  0  0  0  0  0
   -3.2376    1.4583    0.0000 C   0  0  0  0  0  0  0  0  0  0  0  0
   -1.5537    1.4583    0.0000 C   0  0  0  0  0  0  0  0  0  0  0  0
    0.1303    2.4306    0.0000 C   0  0  0  0  0  0  0  0  0  0  0  0
    0.9722    2.9167    0.0000 C   0  0  0  0  0  0  0  0  0  0  0  0
    1.8142    2.4306    0.0000 C   0  0  0  0  0  0  0  0  0  0  0  0
    2.6562    2.9167    0.0000 C   0  0  0  0  0  0  0  0  0  0  0  0
    3.4981    2.4306    0.0000 C   0  0  0  0  0  0  0  0  0  0  0  0
    3.4981    1.4583    0.0000 C   0  0  0  0  0  0  0  0  0  0  0  0
    2.6562    0.9722    0.0000 C   0  0  0  0  0  0  0  0  0  0  0  0
    1.8142    1.4583    0.0000 C   0  0  0  0  0  0  0  0  0  0  0  0
    0.0000    0.0000    0.0000 O   0  0  0  0  0  0  0  0  0  0  0  0
    1.8142   -1.4583    0.0000 C   0  0  0  0  0  0  0  0  0  0  0  0
    1.8142   -2.4306    0.0000 C   0  0  0  0  0  0  0  0  0  0  0  0
  1 31  2  0  0  0  0
  1  2  1  0  0  0  0
  2  3  2  0  0  0  0
  3  4  1  0  0  0  0
  4  5  1  0  0  0  0
  4 30  2  0  0  0  0
  5  6  1  0  0  0  0
  5 12  1  0  0  0  0
  5 29  2  0  0  0  0
  6 11  2  0  0  0  0
  6  7  1  0  0  0  0
  7  8  2  0  0  0  0
  8  9  1  0  0  0  0
  9 10  2  0  0  0  0
 10 11  1  0  0  0  0
 12 28  1  0  0  0  0
 12 13  1  0  0  0  0
 13 14  1  0  0  0  0
 13 21  1  0  0  0  0
 14 20  2  0  0  0  0
 14 15  1  0  0  0  0
 15 16  2  0  0  0  0
 16 17  1  0  0  0  0
 17 18  2  0  0  0  0
 18 19  1  0  0  0  0
 18 20  1  0  0  0  0
 21 22  1  0  0  0  0
 22 23  1  0  0  0  0
 23 28  2  0  0  0  0
 23 24  1  0  0  0  0
 24 25  2  0  0  0  0
 25 26  1  0  0  0  0
 26 27  2  0  0  0  0
 27 28  1  0  0  0  0
 30 31  1  0  0  0  0
M  END
> <NMREDATA_VERSION>
1.1

> <NMREDATA_LEVEL>
0

> <NMREDATA_SOLVENT>
CDCl3

> <NMREDATA_FORMULA>
C28H26NOP

> <NMREDATA_SMILES>
Cc1cccc(c1)N1CCc2c(C1P(=O)(c1ccccc1)c1ccccc1)cccc2

> <NMREDATA_ASSIGNMENT>
P5, 32.19, 5

> <NMREDATA_1D_31P>
Larmor=162
32.19, L=P5

$$$$
