
 OpenBabel06112616422D

 24 25  0  0  0  0  0  0  0  0999 V2000
   -3.5491   -2.8090    0.0000 C   0  0  0  0  0  0  0  0  0  0  0  0
   -2.6831   -3.3090    0.0000 C   0  0  0  0  0  0  0  0  0  0  0  0
   -2.6831   -4.3090    0.0000 C   0  0  0  0  0  0  0  0  0  0  0  0
   -1.8171   -2.8090    0.0000 P   0  0  0  0  0  0  0  0  0  0  0  0
   -1.8171   -1.8090    0.0000 C   0  0  0  0  0  0  0  0  0  0  0  0
   -2.6831   -1.3090    0.0000 C   0  0  0  0  0  0  0  0  0  0  0  0
   -3.5491   -1.8090    0.0000 S   0  0  3  0  0  0  0  0  0  0  0  0
   -3.5491   -2.8090    0.0000 O   0  0  0  0  0  0  0  0  0  0  0  0
   -4.4152   -1.3090    0.0000 C   0  0  0  0  0  0  0  0  0  0  0  0
   -4.9152   -0.4430    0.0000 C   0  0  0  0  0  0  0  0  0  0  0  0
   -3.9152   -0.4430    0.0000 C   0  0  0  0  0  0  0  0  0  0  0  0
   -5.2812   -1.8090    0.0000 C   0  0  0  0  0  0  0  0  0  0  0  0
   -2.6831   -0.3090    0.0000 C   0  0  0  0  0  0  0  0  0  0  0  0
   -1.8171    0.1910    0.0000 C   0  0  0  0  0  0  0  0  0  0  0  0
   -0.9511   -0.3090    0.0000 C   0  0  0  0  0  0  0  0  0  0  0  0
   -0.9511   -1.3090    0.0000 C   0  0  0  0  0  0  0  0  0  0  0  0
    0.0000   -1.6180    0.0000 O   0  0  0  0  0  0  0  0  0  0  0  0
    0.5878   -0.8090    0.0000 C   0  0  0  0  0  0  0  0  0  0  0  0
    1.4538   -0.3090    0.0000 C   0  0  0  0  0  0  0  0  0  0  0  0
    1.4538   -1.3090    0.0000 C   0  0  0  0  0  0  0  0  0  0  0  0
    0.0000    0.0000    0.0000 O   0  0  0  0  0  0  0  0  0  0  0  0
   -0.9511   -3.3090    0.0000 C   0  0  0  0  0  0  0  0  0  0  0  0
   -0.9511   -4.3090    0.0000 C   0  0  0  0  0  0  0  0  0  0  0  0
   -0.0850   -2.8090    0.0000 C   0  0  0  0  0  0  0  0  0  0  0  0
  1  2  1  0  0  0  0
  2  3  1  0  0  0  0
  2  4  1  0  0  0  0
  4  5  1  0  0  0  0
  4 22  1  0  0  0  0
  5 16  2  0  0  0  0
  5  6  1  0  0  0  0
  6  7  1  0  0  0  0
  6 13  2  0  0  0  0
  7  8  2  0  0  0  0
  7  9  1  0  0  0  0
  9 10  1  0  0  0  0
  9 11  1  0  0  0  0
  9 12  1  0  0  0  0
 13 14  1  0  0  0  0
 14 15  2  0  0  0  0
 15 21  1  0  0  0  0
 15 16  1  0  0  0  0
 16 17  1  0  0  0  0
 17 18  1  0  0  0  0
 18 19  1  0  0  0  0
 18 20  1  0  0  0  0
 18 21  1  0  0  0  0
 22 23  1  0  0  0  0
 22 24  1  0  0  0  0
M  END
> <NMREDATA_VERSION>
1.1

> <NMREDATA_LEVEL>
0

> <NMREDATA_SOLVENT>
CDCl3

> <NMREDATA_FORMULA>
C19H31O3PS

> <NMREDATA_SMILES>
CC(P(c1c2OC(Oc2ccc1S(=O)C(C)(C)C)(C)C)C(C)C)C

> <NMREDATA_ASSIGNMENT>
P4, 1.46, 4

> <NMREDATA_1D_31P>
Larmor=162
1.46, L=P4

$$$$
