
 OpenBabel06112616462D

 27 30  0  0  0  0  0  0  0  0999 V2000
   -1.4516    1.5465    0.0000 C   0  5  0  0  0  0  0  0  0  0  0  0
   -1.9355    0.7084    0.0000 N   0  3  0  0  0  0  0  0  0  0  0  0
   -2.4194   -0.1297    0.0000 C   0  0  0  0  0  0  0  0  0  0  0  0
   -1.9355   -0.9677    0.0000 C   0  0  0  0  0  0  0  0  0  0  0  0
    0.0000   -0.9677    0.0000 P   0  3  0  0  0  0  0  0  0  0  0  0
    0.0000   -1.9355    0.0000 C   0  0  0  0  0  0  0  0  0  0  0  0
    0.8381   -2.4194    0.0000 C   0  0  0  0  0  0  0  0  0  0  0  0
    0.8381   -3.3871    0.0000 C   0  0  0  0  0  0  0  0  0  0  0  0
    0.0000   -3.8710    0.0000 C   0  0  0  0  0  0  0  0  0  0  0  0
   -0.8381   -3.3871    0.0000 C   0  0  0  0  0  0  0  0  0  0  0  0
   -0.8381   -2.4194    0.0000 C   0  0  0  0  0  0  0  0  0  0  0  0
    0.9677   -0.9677    0.0000 C   0  0  0  0  0  0  0  0  0  0  0  0
    1.4516   -0.1297    0.0000 C   0  0  0  0  0  0  0  0  0  0  0  0
    2.4194   -0.1297    0.0000 C   0  0  0  0  0  0  0  0  0  0  0  0
    2.9032   -0.9677    0.0000 C   0  0  0  0  0  0  0  0  0  0  0  0
    2.4194   -1.8058    0.0000 C   0  0  0  0  0  0  0  0  0  0  0  0
    1.4516   -1.8058    0.0000 C   0  0  0  0  0  0  0  0  0  0  0  0
    0.0000    0.0000    0.0000 C   0  0  0  0  0  0  0  0  0  0  0  0
   -0.8381    0.4839    0.0000 C   0  0  0  0  0  0  0  0  0  0  0  0
   -0.8381    1.4516    0.0000 C   0  0  0  0  0  0  0  0  0  0  0  0
    0.0000    1.9355    0.0000 C   0  0  0  0  0  0  0  0  0  0  0  0
    0.8381    1.4516    0.0000 C   0  0  0  0  0  0  0  0  0  0  0  0
    0.8381    0.4839    0.0000 C   0  0  0  0  0  0  0  0  0  0  0  0
   -2.4194   -1.8058    0.0000 C   0  0  0  0  0  0  0  0  0  0  0  0
   -3.3871   -1.8058    0.0000 C   0  0  0  0  0  0  0  0  0  0  0  0
   -3.8710   -0.9677    0.0000 N   0  0  0  0  0  0  0  0  0  0  0  0
   -3.3871   -0.1297    0.0000 C   0  0  0  0  0  0  0  0  0  0  0  0
  1  2  3  0  0  0  0
  2  3  1  0  0  0  0
  3 27  2  0  0  0  0
  3  4  1  0  0  0  0
  4  5  1  0  0  0  0
  4 24  2  0  0  0  0
  5  6  1  0  0  0  0
  5 12  1  0  0  0  0
  5 18  1  0  0  0  0
  6 11  2  0  0  0  0
  6  7  1  0  0  0  0
  7  8  2  0  0  0  0
  8  9  1  0  0  0  0
  9 10  2  0  0  0  0
 10 11  1  0  0  0  0
 12 17  2  0  0  0  0
 12 13  1  0  0  0  0
 13 14  2  0  0  0  0
 14 15  1  0  0  0  0
 15 16  2  0  0  0  0
 16 17  1  0  0  0  0
 18 23  2  0  0  0  0
 18 19  1  0  0  0  0
 19 20  2  0  0  0  0
 20 21  1  0  0  0  0
 21 22  2  0  0  0  0
 22 23  1  0  0  0  0
 24 25  1  0  0  0  0
 25 26  2  0  0  0  0
 26 27  1  0  0  0  0
M  END
> <NMREDATA_VERSION>
1.1

> <NMREDATA_LEVEL>
0

> <NMREDATA_SOLVENT>
CDCl3

> <NMREDATA_FORMULA>
C24H18N2P

> <NMREDATA_SMILES>
[C-]#[N+]c1cnccc1[P+](c1ccccc1)(c1ccccc1)c1ccccc1

> <NMREDATA_ASSIGNMENT>
P5, 22.90, 5

> <NMREDATA_1D_31P>
Larmor=162
22.90, L=P5

$$$$
