
 OpenBabel06112616472D

 61 69  0  0  0  0  0  0  0  0999 V2000
    4.8592   -0.9718    0.0000 C   0  0  0  0  0  0  0  0  0  0  0  0
    5.3451   -0.1302    0.0000 C   0  0  0  0  0  0  0  0  0  0  0  0
    6.3169   -0.1302    0.0000 C   0  0  0  0  0  0  0  0  0  0  0  0
    6.8028   -0.9718    0.0000 C   0  0  0  0  0  0  0  0  0  0  0  0
    6.3169   -1.8135    0.0000 C   0  0  0  0  0  0  0  0  0  0  0  0
    5.3451   -1.8135    0.0000 C   0  0  0  0  0  0  0  0  0  0  0  0
    3.8873   -0.9718    0.0000 C   0  0  0  0  0  0  0  0  0  0  0  0
    3.4014   -0.1302    0.0000 C   0  0  0  0  0  0  0  0  0  0  0  0
    2.4296   -0.1302    0.0000 C   0  0  0  0  0  0  0  0  0  0  0  0
    1.9437   -0.9718    0.0000 C   0  0  0  0  0  0  0  0  0  0  0  0
    0.0000   -0.9718    0.0000 P   0  0  2  0  0  0  0  0  0  0  0  0
    0.0000   -2.9155    0.0000 N   0  0  0  0  0  0  0  0  0  0  0  0
    0.8416   -3.4014    0.0000 C   0  0  0  0  0  0  0  0  0  0  0  0
    1.6833   -2.9155    0.0000 C   0  0  0  0  0  0  0  0  0  0  0  0
    0.8416   -4.3732    0.0000 C   0  0  0  0  0  0  0  0  0  0  0  0
   -0.8416   -3.4014    0.0000 C   0  0  0  0  0  0  0  0  0  0  0  0
   -0.8416   -4.3732    0.0000 C   0  0  0  0  0  0  0  0  0  0  0  0
   -1.6833   -2.9155    0.0000 C   0  0  0  0  0  0  0  0  0  0  0  0
   -0.9718   -0.9718    0.0000 C   0  0  0  0  0  0  0  0  0  0  0  0
   -1.4577   -0.1302    0.0000 C   0  0  0  0  0  0  0  0  0  0  0  0
   -0.9718    0.7114    0.0000 C   0  0  0  0  0  0  0  0  0  0  0  0
    0.0000    0.7114    0.0000 C   0  0  0  0  0  0  0  0  0  0  0  0
    0.4859    1.5531    0.0000 C   0  0  0  0  0  0  0  0  0  0  0  0
    1.4577    1.5531    0.0000 C   0  0  0  0  0  0  0  0  0  0  0  0
    1.9437    0.7114    0.0000 C   0  0  0  0  0  0  0  0  0  0  0  0
    1.4577   -0.1302    0.0000 C   0  0  0  0  0  0  0  0  0  0  0  0
    0.4859   -0.1302    0.0000 C   0  0  0  0  0  0  0  0  0  0  0  0
    0.0000    2.3947    0.0000 C   0  0  0  0  0  0  0  0  0  0  0  0
    0.4859    3.2363    0.0000 C   0  0  0  0  0  0  0  0  0  0  0  0
    1.4577    3.2363    0.0000 C   0  0  0  0  0  0  0  0  0  0  0  0
    1.9437    4.0780    0.0000 C   0  0  0  0  0  0  0  0  0  0  0  0
    1.4577    4.9196    0.0000 C   0  0  0  0  0  0  0  0  0  0  0  0
    0.4859    4.9196    0.0000 C   0  0  0  0  0  0  0  0  0  0  0  0
    0.0000    4.0780    0.0000 C   0  0  0  0  0  0  0  0  0  0  0  0
   -0.9718    2.3947    0.0000 C   0  0  0  0  0  0  0  0  0  0  0  0
   -1.4577    3.2363    0.0000 C   0  0  0  0  0  0  0  0  0  0  0  0
   -0.9718    4.0780    0.0000 C   0  0  0  0  0  0  0  0  0  0  0  0
   -1.4577    4.9196    0.0000 C   0  0  0  0  0  0  0  0  0  0  0  0
   -2.4296    4.9196    0.0000 C   0  0  0  0  0  0  0  0  0  0  0  0
   -2.9155    4.0780    0.0000 C   0  0  0  0  0  0  0  0  0  0  0  0
   -2.4296    3.2363    0.0000 C   0  0  0  0  0  0  0  0  0  0  0  0
   -1.4577    1.5531    0.0000 C   0  0  0  0  0  0  0  0  0  0  0  0
   -2.4296    1.5531    0.0000 C   0  0  0  0  0  0  0  0  0  0  0  0
   -2.9155    2.3947    0.0000 C   0  0  0  0  0  0  0  0  0  0  0  0
   -3.8873    2.3947    0.0000 C   0  0  0  0  0  0  0  0  0  0  0  0
   -4.3732    1.5531    0.0000 C   0  0  0  0  0  0  0  0  0  0  0  0
   -3.8873    0.7114    0.0000 C   0  0  0  0  0  0  0  0  0  0  0  0
   -2.9155    0.7114    0.0000 C   0  0  0  0  0  0  0  0  0  0  0  0
   -2.4296   -0.1302    0.0000 C   0  0  0  0  0  0  0  0  0  0  0  0
   -2.9155   -0.9718    0.0000 C   0  0  0  0  0  0  0  0  0  0  0  0
   -3.8873   -0.9718    0.0000 C   0  0  0  0  0  0  0  0  0  0  0  0
   -4.3732   -0.1302    0.0000 C   0  0  0  0  0  0  0  0  0  0  0  0
   -5.3451   -0.1302    0.0000 C   0  0  0  0  0  0  0  0  0  0  0  0
   -5.8310   -0.9718    0.0000 C   0  0  0  0  0  0  0  0  0  0  0  0
   -5.3451   -1.8135    0.0000 C   0  0  0  0  0  0  0  0  0  0  0  0
   -4.3732   -1.8135    0.0000 C   0  0  0  0  0  0  0  0  0  0  0  0
   -2.4296   -1.8135    0.0000 C   0  0  0  0  0  0  0  0  0  0  0  0
   -1.4577   -1.8135    0.0000 C   0  0  0  0  0  0  0  0  0  0  0  0
    0.0000    0.0000    0.0000 O   0  0  0  0  0  0  0  0  0  0  0  0
    2.4296   -1.8135    0.0000 C   0  0  0  0  0  0  0  0  0  0  0  0
    3.4014   -1.8135    0.0000 C   0  0  0  0  0  0  0  0  0  0  0  0
  1  6  2  0  0  0  0
  1  2  1  0  0  0  0
  1  7  1  0  0  0  0
  2  3  2  0  0  0  0
  3  4  1  0  0  0  0
  4  5  2  0  0  0  0
  5  6  1  0  0  0  0
  7 61  2  0  0  0  0
  7  8  1  0  0  0  0
  8  9  2  0  0  0  0
  9 10  1  0  0  0  0
 10 11  1  0  0  0  0
 10 60  2  0  0  0  0
 11 12  1  0  0  0  0
 11 19  1  0  0  0  0
 11 59  2  1  0  0  0
 12 13  1  0  0  0  0
 12 16  1  0  0  0  0
 13 14  1  0  0  0  0
 13 15  1  0  0  0  0
 16 17  1  0  0  0  0
 16 18  1  0  0  0  0
 19 58  2  0  0  0  0
 19 20  1  0  0  0  0
 20 21  1  0  0  0  0
 20 49  2  0  0  0  0
 21 42  2  0  0  0  0
 21 22  1  0  0  0  0
 22 27  2  0  0  0  0
 22 23  1  0  0  0  0
 23 24  2  0  0  0  0
 23 28  1  0  0  0  0
 24 25  1  0  0  0  0
 25 26  2  0  0  0  0
 26 27  1  0  0  0  0
 28 29  1  0  0  0  0
 28 35  2  0  0  0  0
 29 34  2  0  0  0  0
 29 30  1  0  0  0  0
 30 31  2  0  0  0  0
 31 32  1  0  0  0  0
 32 33  2  0  0  0  0
 33 34  1  0  0  0  0
 35 36  1  0  0  0  0
 35 42  1  0  0  0  0
 36 41  2  0  0  0  0
 36 37  1  0  0  0  0
 37 38  2  0  0  0  0
 38 39  1  0  0  0  0
 39 40  2  0  0  0  0
 40 41  1  0  0  0  0
 42 43  1  0  0  0  0
 43 48  2  0  0  0  0
 43 44  1  0  0  0  0
 44 45  2  0  0  0  0
 45 46  1  0  0  0  0
 46 47  2  0  0  0  0
 47 48  1  0  0  0  0
 49 50  1  0  0  0  0
 50 51  1  0  0  0  0
 50 57  2  0  0  0  0
 51 56  2  0  0  0  0
 51 52  1  0  0  0  0
 52 53  2  0  0  0  0
 53 54  1  0  0  0  0
 54 55  2  0  0  0  0
 55 56  1  0  0  0  0
 57 58  1  0  0  0  0
 60 61  1  0  0  0  0
M  END
> <NMREDATA_VERSION>
1.1

> <NMREDATA_LEVEL>
0

> <NMREDATA_SOLVENT>
CDCl3

> <NMREDATA_FORMULA>
C58H50NOP

> <NMREDATA_SMILES>
CC(N([P@](=O)(c1ccc(cc1c1c(c2ccccc2)c(c2ccccc2)c(c2c1cccc2)c1ccccc1)c1ccccc1)c1ccc(cc1)c1ccccc1)C(C)C)C

> <NMREDATA_ASSIGNMENT>
P11, 27.90, 11

> <NMREDATA_1D_31P>
Larmor=243
27.90, L=P11

$$$$
