
 OpenBabel06112616462D

 46 52  0  0  0  0  0  0  0  0999 V2000
    2.9434    0.0000    0.0000 C   0  0  0  0  0  0  0  0  0  0  0  0
    3.9245    0.0000    0.0000 C   0  0  0  0  0  0  0  0  0  0  0  0
    4.7742    0.4906    0.0000 C   0  0  0  0  0  0  0  0  0  0  0  0
    3.9245    0.9811    0.0000 C   0  0  0  0  0  0  0  0  0  0  0  0
    4.4151   -0.8497    0.0000 C   0  0  0  0  0  0  0  0  0  0  0  0
    2.4528    0.8497    0.0000 C   0  0  0  0  0  0  0  0  0  0  0  0
    1.4717    0.8497    0.0000 C   0  0  0  0  0  0  0  0  0  0  0  0
    0.9811    0.0000    0.0000 C   0  0  0  0  0  0  0  0  0  0  0  0
    0.0000    0.0000    0.0000 P   0  0  0  0  0  0  0  0  0  0  0  0
    0.0000    0.9811    0.0000 O   0  0  0  0  0  0  0  0  0  0  0  0
   -0.9811    0.0000    0.0000 C   0  0  0  0  0  0  0  0  0  0  0  0
   -1.4717   -0.8497    0.0000 C   0  0  0  0  0  0  0  0  0  0  0  0
   -2.4528   -0.8497    0.0000 C   0  0  0  0  0  0  0  0  0  0  0  0
   -2.9434    0.0000    0.0000 C   0  0  0  0  0  0  0  0  0  0  0  0
   -3.9245    0.0000    0.0000 C   0  0  0  0  0  0  0  0  0  0  0  0
   -4.7742   -0.4906    0.0000 C   0  0  0  0  0  0  0  0  0  0  0  0
   -3.9245   -0.9811    0.0000 C   0  0  0  0  0  0  0  0  0  0  0  0
   -4.4151    0.8497    0.0000 C   0  0  0  0  0  0  0  0  0  0  0  0
   -2.4528    0.8497    0.0000 C   0  0  0  0  0  0  0  0  0  0  0  0
   -1.4717    0.8497    0.0000 C   0  0  0  0  0  0  0  0  0  0  0  0
    0.0000   -1.9623    0.0000 C   0  0  0  0  0  0  0  0  0  0  0  0
   -0.8497   -2.4528    0.0000 C   0  0  0  0  0  0  0  0  0  0  0  0
   -0.8497   -3.4340    0.0000 C   0  0  0  0  0  0  0  0  0  0  0  0
    0.0000   -3.9245    0.0000 C   0  0  0  0  0  0  0  0  0  0  0  0
    0.0000   -4.9057    0.0000 C   0  0  0  0  0  0  0  0  0  0  0  0
    0.8497   -5.3962    0.0000 C   0  0  0  0  0  0  0  0  0  0  0  0
    0.8497   -6.3774    0.0000 C   0  0  0  0  0  0  0  0  0  0  0  0
    0.0000   -6.8679    0.0000 C   0  0  0  0  0  0  0  0  0  0  0  0
   -0.8497   -6.3774    0.0000 C   0  0  0  0  0  0  0  0  0  0  0  0
   -0.8497   -5.3962    0.0000 C   0  0  0  0  0  0  0  0  0  0  0  0
    0.8497   -3.4340    0.0000 C   0  0  0  0  0  0  0  0  0  0  0  0
    1.6994   -3.9245    0.0000 C   0  0  0  0  0  0  0  0  0  0  0  0
    2.5491   -3.4340    0.0000 C   0  0  0  0  0  0  0  0  0  0  0  0
    2.5491   -2.4528    0.0000 C   0  0  0  0  0  0  0  0  0  0  0  0
    1.6994   -1.9623    0.0000 C   0  0  0  0  0  0  0  0  0  0  0  0
    0.8497   -2.4528    0.0000 C   0  0  0  0  0  0  0  0  0  0  0  0
   -1.7828   -3.7371    0.0000 C   0  0  0  0  0  0  0  0  0  0  0  0
   -2.1819   -4.6335    0.0000 C   0  0  0  0  0  0  0  0  0  0  0  0
   -3.1576   -4.7360    0.0000 C   0  0  0  0  0  0  0  0  0  0  0  0
   -3.7343   -3.9423    0.0000 C   0  0  0  0  0  0  0  0  0  0  0  0
   -3.3352   -3.0460    0.0000 C   0  0  0  0  0  0  0  0  0  0  0  0
   -2.3595   -2.9434    0.0000 C   0  0  0  0  0  0  0  0  0  0  0  0
   -1.7828   -2.1496    0.0000 C   0  0  0  0  0  0  0  0  0  0  0  0
   -2.0860   -1.2165    0.0000 O   0  0  0  0  0  0  0  0  0  0  0  0
    1.4717   -0.8497    0.0000 C   0  0  0  0  0  0  0  0  0  0  0  0
    2.4528   -0.8497    0.0000 C   0  0  0  0  0  0  0  0  0  0  0  0
  1 46  2  0  0  0  0
  1  2  1  0  0  0  0
  1  6  1  0  0  0  0
  2  3  1  0  0  0  0
  2  4  1  0  0  0  0
  2  5  1  0  0  0  0
  6  7  2  0  0  0  0
  7  8  1  0  0  0  0
  8  9  1  0  0  0  0
  8 45  2  0  0  0  0
  9 10  2  0  0  0  0
  9 11  1  0  0  0  0
  9 21  1  0  0  0  0
 11 20  2  0  0  0  0
 11 12  1  0  0  0  0
 12 13  2  0  0  0  0
 13 14  1  0  0  0  0
 14 15  1  0  0  0  0
 14 19  2  0  0  0  0
 15 16  1  0  0  0  0
 15 17  1  0  0  0  0
 15 18  1  0  0  0  0
 19 20  1  0  0  0  0
 21 36  2  0  0  0  0
 21 22  1  0  0  0  0
 22 43  1  0  0  0  0
 22 23  2  0  0  0  0
 23 24  1  0  0  0  0
 23 37  1  0  0  0  0
 24 25  1  0  0  0  0
 24 31  2  0  0  0  0
 25 30  2  0  0  0  0
 25 26  1  0  0  0  0
 26 27  2  0  0  0  0
 27 28  1  0  0  0  0
 28 29  2  0  0  0  0
 29 30  1  0  0  0  0
 31 36  1  0  0  0  0
 31 32  1  0  0  0  0
 32 33  2  0  0  0  0
 33 34  1  0  0  0  0
 34 35  2  0  0  0  0
 35 36  1  0  0  0  0
 37 42  2  0  0  0  0
 37 38  1  0  0  0  0
 38 39  2  0  0  0  0
 39 40  1  0  0  0  0
 40 41  2  0  0  0  0
 41 42  1  0  0  0  0
 42 43  1  0  0  0  0
 43 44  2  0  0  0  0
 45 46  1  0  0  0  0
M  END
> <NMREDATA_VERSION>
1.1

> <NMREDATA_LEVEL>
0

> <NMREDATA_SOLVENT>
CDCl3

> <NMREDATA_FORMULA>
C43H39O2P

> <NMREDATA_SMILES>
O=C1c2ccccc2-c2c1c(c1c(c2c2ccccc2)cccc1)P(=O)(c1ccc(cc1)C(C)(C)C)c1ccc(cc1)C(C)(C)C

> <NMREDATA_ASSIGNMENT>
P9, 33.60, 9

> <NMREDATA_1D_31P>
Larmor=202
33.60, L=P9

$$$$
