
 OpenBabel06112616432D

 59 61  0  0  1  0  0  0  0  0999 V2000
   -1.4758   -0.1318    0.0000 C    0  0  0  0  0  0  0  0  0  0  0  0
   -0.9839   -0.9839    0.0000 C    0  0  0  0  0  0  0  0  0  0  0  0
   -1.4758   -1.8359    0.0000 C    0  0  0  0  0  0  0  0  0  0  0  0
    0.0000   -0.9839    0.0000 Si   0  0  0  0  0  0  0  0  0  0  0  0
    0.0000   -1.9677    0.0000 C    0  0  0  0  0  0  0  0  0  0  0  0
   -0.8521   -2.4597    0.0000 C    0  0  0  0  0  0  0  0  0  0  0  0
    0.8521   -2.4597    0.0000 C    0  0  0  0  0  0  0  0  0  0  0  0
    0.9839   -0.9839    0.0000 C    0  0  0  0  0  0  0  0  0  0  0  0
    1.4758   -1.8359    0.0000 C    0  0  0  0  0  0  0  0  0  0  0  0
    1.4758   -0.1318    0.0000 C    0  0  0  0  0  0  0  0  0  0  0  0
    0.0000    0.0000    0.0000 O    0  0  0  0  0  0  0  0  0  0  0  0
   -0.8521    0.4919    0.0000 C    0  0  2  0  0  0  0  0  0  0  0  0
   -0.8521    1.4758    0.0000 C    0  0  2  0  0  0  0  0  0  0  0  0
    0.0000    1.9677    0.0000 C    0  0  0  0  0  0  0  0  0  0  0  0
    0.0000    2.9516    0.0000 P    0  3  0  0  0  0  0  0  0  0  0  0
    0.9839    2.9516    0.0000 C    0  0  0  0  0  0  0  0  0  0  0  0
    1.4758    3.8037    0.0000 C    0  0  0  0  0  0  0  0  0  0  0  0
    2.4597    3.8037    0.0000 C    0  0  0  0  0  0  0  0  0  0  0  0
    2.9516    2.9516    0.0000 C    0  0  0  0  0  0  0  0  0  0  0  0
    2.4597    2.0996    0.0000 C    0  0  0  0  0  0  0  0  0  0  0  0
    1.4758    2.0996    0.0000 C    0  0  0  0  0  0  0  0  0  0  0  0
    0.0000    3.9355    0.0000 C    0  0  0  0  0  0  0  0  0  0  0  0
   -0.8521    4.4274    0.0000 C    0  0  0  0  0  0  0  0  0  0  0  0
   -0.8521    5.4113    0.0000 C    0  0  0  0  0  0  0  0  0  0  0  0
    0.0000    5.9032    0.0000 C    0  0  0  0  0  0  0  0  0  0  0  0
    0.8521    5.4113    0.0000 C    0  0  0  0  0  0  0  0  0  0  0  0
    0.8521    4.4274    0.0000 C    0  0  0  0  0  0  0  0  0  0  0  0
   -0.9839    2.9516    0.0000 C    0  0  0  0  0  0  0  0  0  0  0  0
   -1.9677    4.6557    0.0000 C    0  0  0  0  0  0  0  0  0  0  0  0
   -1.4758    5.5078    0.0000 C    0  0  0  0  0  0  0  0  0  0  0  0
   -1.9677    6.3598    0.0000 C    0  0  0  0  0  0  0  0  0  0  0  0
   -1.4758    7.2119    0.0000 C    0  0  0  0  0  0  0  0  0  0  0  0
   -1.4758    8.1958    0.0000 F    0  0  0  0  0  0  0  0  0  0  0  0
   -2.3279    7.7038    0.0000 F    0  0  0  0  0  0  0  0  0  0  0  0
   -0.4919    7.2119    0.0000 F    0  0  0  0  0  0  0  0  0  0  0  0
   -2.9516    6.3598    0.0000 C    0  0  0  0  0  0  0  0  0  0  0  0
   -3.4435    5.5078    0.0000 C    0  0  0  0  0  0  0  0  0  0  0  0
   -4.4274    5.5078    0.0000 C    0  0  0  0  0  0  0  0  0  0  0  0
   -5.2795    5.9997    0.0000 F    0  0  0  0  0  0  0  0  0  0  0  0
   -4.4274    6.4917    0.0000 F    0  0  0  0  0  0  0  0  0  0  0  0
   -4.9194    4.6557    0.0000 F    0  0  0  0  0  0  0  0  0  0  0  0
   -2.9516    4.6557    0.0000 C    0  0  0  0  0  0  0  0  0  0  0  0
   -1.7041    1.9677    0.0000 N    0  0  0  0  0  0  0  0  0  0  0  0
   -2.5562    1.4758    0.0000 C    0  0  0  0  0  0  0  0  0  0  0  0
   -3.4082    1.9677    0.0000 C    0  0  1  0  0  0  0  0  0  0  0  0
   -3.4082    2.9516    0.0000 C    0  0  0  0  0  0  0  0  0  0  0  0
   -3.9002    3.8037    0.0000 C    0  0  0  0  0  0  0  0  0  0  0  0
   -4.3921    2.9516    0.0000 C    0  0  0  0  0  0  0  0  0  0  0  0
   -2.5562    3.4435    0.0000 C    0  0  0  0  0  0  0  0  0  0  0  0
   -4.2603    1.4758    0.0000 N    0  0  0  0  0  0  0  0  0  0  0  0
   -5.1123    1.9677    0.0000 C    0  0  0  0  0  0  0  0  0  0  0  0
   -5.1123    2.9516    0.0000 O    0  0  0  0  0  0  0  0  0  0  0  0
   -5.9644    1.4758    0.0000 O    0  0  0  0  0  0  0  0  0  0  0  0
   -6.8165    1.9677    0.0000 C    0  0  0  0  0  0  0  0  0  0  0  0
   -7.8003    1.9677    0.0000 C    0  0  0  0  0  0  0  0  0  0  0  0
   -7.3084    1.1157    0.0000 C    0  0  0  0  0  0  0  0  0  0  0  0
   -6.8165    2.9516    0.0000 C    0  0  0  0  0  0  0  0  0  0  0  0
   -2.5562    0.4919    0.0000 O    0  0  0  0  0  0  0  0  0  0  0  0
   -1.7041    0.0000    0.0000 C    0  0  0  0  0  0  0  0  0  0  0  0
  1  2  1  0  0  0  0
  2  3  1  0  0  0  0
  2  4  1  0  0  0  0
  4  5  1  0  0  0  0
  4  8  1  0  0  0  0
  4 11  1  0  0  0  0
  5  6  1  0  0  0  0
  5  7  1  0  0  0  0
  8  9  1  0  0  0  0
  8 10  1  0  0  0  0
 11 12  1  0  0  0  0
 12 13  1  0  0  0  0
 12 59  1  1  0  0  0
 13 14  1  1  0  0  0
 13 43  1  0  0  0  0
 14 15  1  0  0  0  0
 15 16  1  0  0  0  0
 15 22  1  0  0  0  0
 15 28  1  0  0  0  0
 16 21  2  0  0  0  0
 16 17  1  0  0  0  0
 17 18  2  0  0  0  0
 18 19  1  0  0  0  0
 19 20  2  0  0  0  0
 20 21  1  0  0  0  0
 22 27  2  0  0  0  0
 22 23  1  0  0  0  0
 23 24  2  0  0  0  0
 24 25  1  0  0  0  0
 25 26  2  0  0  0  0
 26 27  1  0  0  0  0
 28 29  1  0  0  0  0
 29 42  2  0  0  0  0
 29 30  1  0  0  0  0
 30 31  2  0  0  0  0
 31 32  1  0  0  0  0
 31 36  1  0  0  0  0
 32 33  1  0  0  0  0
 32 34  1  0  0  0  0
 32 35  1  0  0  0  0
 36 37  2  0  0  0  0
 37 38  1  0  0  0  0
 37 42  1  0  0  0  0
 38 39  1  0  0  0  0
 38 40  1  0  0  0  0
 38 41  1  0  0  0  0
 43 44  1  0  0  0  0
 44 58  2  0  0  0  0
 45 44  1  6  0  0  0
 45 46  1  0  0  0  0
 45 50  1  0  0  0  0
 46 47  1  0  0  0  0
 46 48  1  0  0  0  0
 46 49  1  0  0  0  0
 50 51  1  0  0  0  0
 51 52  2  0  0  0  0
 51 53  1  0  0  0  0
 53 54  1  0  0  0  0
 54 55  1  0  0  0  0
 54 56  1  0  0  0  0
 54 57  1  0  0  0  0
M  END
> <NMREDATA_VERSION>
1.1

> <NMREDATA_LEVEL>
0

> <NMREDATA_SOLVENT>
CDCl3

> <NMREDATA_FORMULA>
C45H64F6N2O4PSi

> <NMREDATA_SMILES>
O=C(OC(C)(C)C)N[C@H](C(C)(C)C)C(=O)N[C@H]([C@@H](O[Si](C(C)C)(C(C)C)C(C)C)C)CP(c1ccccc1)(c1ccccc1)Cc1cc(cc(c1)C(F)(F)F)C(F)(F)F

> <NMREDATA_ASSIGNMENT>
P15, 30.30, 15

> <NMREDATA_1D_31P>
Larmor=162
30.30, L=P15

$$$$
