
 OpenBabel06112616472D

 46 52  0  0  1  0  0  0  0  0999 V2000
   -1.8273   -0.6900    0.0000 C    0  0  0  0  0  0  0  0  0  0  0  0
   -0.8942   -0.9931    0.0000 C    0  0  0  0  0  0  0  0  0  0  0  0
   -0.6902   -1.9528    0.0000 C    0  0  0  0  0  0  0  0  0  0  0  0
   -1.4194   -2.6093    0.0000 C    0  0  0  0  0  0  0  0  0  0  0  0
   -2.3525   -2.3061    0.0000 C    0  0  0  0  0  0  0  0  0  0  0  0
   -2.5565   -1.3465    0.0000 C    0  0  0  0  0  0  0  0  0  0  0  0
   -2.0313    0.2697    0.0000 C    0  0  0  0  0  0  0  0  0  0  0  0
   -2.9276    0.6688    0.0000 N    0  0  0  0  0  0  0  0  0  0  0  0
   -2.8251    1.6446    0.0000 C    0  0  0  0  0  0  0  0  0  0  0  0
   -3.5542    2.3011    0.0000 C    0  0  0  0  0  0  0  0  0  0  0  0
   -3.3502    3.2608    0.0000 N    0  0  0  0  0  0  0  0  0  0  0  0
   -4.0793    3.9173    0.0000 C    0  0  2  0  0  0  0  0  0  0  0  0
   -5.9456    3.3109    0.0000 C    0  0  3  0  0  0  0  0  0  0  0  0
   -6.7393    3.8876    0.0000 C    0  0  0  0  0  0  0  0  0  0  0  0
   -6.7393    4.8687    0.0000 P    0  0  0  0  0  0  0  0  0  0  0  0
   -7.5890    5.3593    0.0000 C    0  0  0  0  0  0  0  0  0  0  0  0
   -7.5890    6.3404    0.0000 C    0  0  0  0  0  0  0  0  0  0  0  0
   -8.4387    6.8310    0.0000 C    0  0  0  0  0  0  0  0  0  0  0  0
   -9.2884    6.3404    0.0000 C    0  0  0  0  0  0  0  0  0  0  0  0
   -9.2884    5.3593    0.0000 C    0  0  0  0  0  0  0  0  0  0  0  0
   -8.4387    4.8687    0.0000 C    0  0  0  0  0  0  0  0  0  0  0  0
   -5.8896    5.3593    0.0000 C    0  0  0  0  0  0  0  0  0  0  0  0
   -5.0399    4.8687    0.0000 C    0  0  0  0  0  0  0  0  0  0  0  0
   -4.1903    5.3593    0.0000 C    0  0  0  0  0  0  0  0  0  0  0  0
   -4.1903    6.3404    0.0000 C    0  0  0  0  0  0  0  0  0  0  0  0
   -5.0399    6.8310    0.0000 C    0  0  0  0  0  0  0  0  0  0  0  0
   -5.8896    6.3404    0.0000 C    0  0  0  0  0  0  0  0  0  0  0  0
   -7.5331    3.3109    0.0000 C    0  0  0  0  0  0  0  0  0  0  0  0
   -8.4662    3.6141    0.0000 Fe   0  0  0  0  0  0  0  0  0  0  0  0
   -9.1953    2.9576    0.0000 C    0  0  0  0  0  0  0  0  0  0  0  0
   -8.9913    1.9979    0.0000 C    0  0  0  0  0  0  0  0  0  0  0  0
   -9.7204    1.3414    0.0000 C    0  0  0  0  0  0  0  0  0  0  0  0
  -10.6535    1.6446    0.0000 C    0  0  0  0  0  0  0  0  0  0  0  0
  -10.8575    2.6043    0.0000 C    0  0  0  0  0  0  0  0  0  0  0  0
  -10.1284    3.2608    0.0000 C    0  0  0  0  0  0  0  0  0  0  0  0
   -7.2299    2.3778    0.0000 C    0  0  0  0  0  0  0  0  0  0  0  0
   -6.2487    2.3778    0.0000 C    0  0  0  0  0  0  0  0  0  0  0  0
   -3.8753    4.8770    0.0000 C    0  0  0  0  0  0  0  0  0  0  0  0
   -1.8654    1.8486    0.0000 N    0  0  0  0  0  0  0  0  0  0  0  0
   -1.3748    0.9989    0.0000 C    0  0  0  0  0  0  0  0  0  0  0  0
   -0.3991    0.8963    0.0000 C    0  0  0  0  0  0  0  0  0  0  0  0
    0.1776    1.6901    0.0000 C    0  0  0  0  0  0  0  0  0  0  0  0
    1.1534    1.5875    0.0000 C    0  0  0  0  0  0  0  0  0  0  0  0
    1.5525    0.6912    0.0000 C    0  0  0  0  0  0  0  0  0  0  0  0
    0.9758   -0.1026    0.0000 C    0  0  0  0  0  0  0  0  0  0  0  0
    0.0000    0.0000    0.0000 C    0  0  0  0  0  0  0  0  0  0  0  0
  1  6  2  0  0  0  0
  1  2  1  0  0  0  0
  1  7  1  0  0  0  0
  2  3  2  0  0  0  0
  3  4  1  0  0  0  0
  4  5  2  0  0  0  0
  5  6  1  0  0  0  0
  7 40  2  0  0  0  0
  7  8  1  0  0  0  0
  8  9  1  0  0  0  0
  9 10  1  0  0  0  0
  9 39  2  0  0  0  0
 10 11  1  0  0  0  0
 11 12  1  0  0  0  0
 12 13  1  0  0  0  0
 12 38  1  6  0  0  0
 13 37  1  0  0  0  0
 13 14  1  0  0  0  0
 14 15  1  0  0  0  0
 14 28  2  0  0  0  0
 15 16  1  0  0  0  0
 15 22  1  0  0  0  0
 16 21  2  0  0  0  0
 16 17  1  0  0  0  0
 17 18  2  0  0  0  0
 18 19  1  0  0  0  0
 19 20  2  0  0  0  0
 20 21  1  0  0  0  0
 22 27  2  0  0  0  0
 22 23  1  0  0  0  0
 23 24  2  0  0  0  0
 24 25  1  0  0  0  0
 25 26  2  0  0  0  0
 26 27  1  0  0  0  0
 28 29  1  0  0  0  0
 28 36  1  0  0  0  0
 29 30  1  0  0  0  0
 30 35  2  0  0  0  0
 30 31  1  0  0  0  0
 31 32  2  0  0  0  0
 32 33  1  0  0  0  0
 33 34  2  0  0  0  0
 34 35  1  0  0  0  0
 36 37  2  0  0  0  0
 39 40  1  0  0  0  0
 40 41  1  0  0  0  0
 41 46  2  0  0  0  0
 41 42  1  0  0  0  0
 42 43  2  0  0  0  0
 43 44  1  0  0  0  0
 44 45  2  0  0  0  0
 45 46  1  0  0  0  0
M  END
> <NMREDATA_VERSION>
1.1

> <NMREDATA_LEVEL>
0

> <NMREDATA_SOLVENT>
CDCl3

> <NMREDATA_FORMULA>
C41H36FeN3P

> <NMREDATA_SMILES>
C[C@@H](C1C=CC(=C1P(c1ccccc1)c1ccccc1)[Fe]c1ccccc1)NCc1nc(c([nH]1)c1ccccc1)c1ccccc1

> <NMREDATA_ASSIGNMENT>
P15, -23.87, 15

> <NMREDATA_1D_31P>
Larmor=161
-23.87, L=P15

$$$$
