
 OpenBabel06112616472D

 46 50  0  0  0  0  0  0  0  0999 V2000
    2.8302    0.6906    0.0000 C   0  0  0  0  0  0  0  0  0  0  0  0
    2.3585   -0.1264    0.0000 C   0  0  0  0  0  0  0  0  0  0  0  0
    2.8302   -0.9434    0.0000 C   0  0  0  0  0  0  0  0  0  0  0  0
    2.3585   -1.7604    0.0000 C   0  0  0  0  0  0  0  0  0  0  0  0
    2.8302   -2.5774    0.0000 C   0  0  0  0  0  0  0  0  0  0  0  0
    1.4151   -1.7604    0.0000 C   0  0  0  0  0  0  0  0  0  0  0  0
    0.9434   -0.9434    0.0000 C   0  0  0  0  0  0  0  0  0  0  0  0
    0.0000   -0.9434    0.0000 P   0  0  0  0  0  0  0  0  0  0  0  0
    0.0000   -1.8868    0.0000 O   0  0  0  0  0  0  0  0  0  0  0  0
   -0.9434   -0.9434    0.0000 C   0  0  0  0  0  0  0  0  0  0  0  0
   -1.4151   -0.1264    0.0000 C   0  0  0  0  0  0  0  0  0  0  0  0
   -2.3585   -0.1264    0.0000 C   0  0  0  0  0  0  0  0  0  0  0  0
   -2.8302    0.6906    0.0000 C   0  0  0  0  0  0  0  0  0  0  0  0
   -2.8302   -0.9434    0.0000 C   0  0  0  0  0  0  0  0  0  0  0  0
   -2.3585   -1.7604    0.0000 C   0  0  0  0  0  0  0  0  0  0  0  0
   -2.8302   -2.5774    0.0000 C   0  0  0  0  0  0  0  0  0  0  0  0
   -1.4151   -1.7604    0.0000 C   0  0  0  0  0  0  0  0  0  0  0  0
    0.0000    0.0000    0.0000 C   0  0  0  0  0  0  0  0  0  0  0  0
   -0.8170    0.4717    0.0000 C   0  0  0  0  0  0  0  0  0  0  0  0
   -0.8170    1.4151    0.0000 C   0  0  0  0  0  0  0  0  0  0  0  0
    0.0000    1.8868    0.0000 O   0  0  0  0  0  0  0  0  0  0  0  0
   -1.6340    1.8868    0.0000 C   0  0  0  0  0  0  0  0  0  0  0  0
   -2.4510    1.4151    0.0000 C   0  0  0  0  0  0  0  0  0  0  0  0
   -3.2680    1.8868    0.0000 C   0  0  0  0  0  0  0  0  0  0  0  0
   -3.2680    2.8302    0.0000 C   0  0  0  0  0  0  0  0  0  0  0  0
   -2.4510    3.3019    0.0000 C   0  0  0  0  0  0  0  0  0  0  0  0
   -1.6340    2.8302    0.0000 C   0  0  0  0  0  0  0  0  0  0  0  0
    3.2680    1.8868    0.0000 P   0  0  0  0  0  0  0  0  0  0  0  0
    3.7397    1.0698    0.0000 O   0  0  0  0  0  0  0  0  0  0  0  0
    4.0850    2.3585    0.0000 C   0  0  0  0  0  0  0  0  0  0  0  0
    4.0850    3.3019    0.0000 C   0  0  0  0  0  0  0  0  0  0  0  0
    4.9020    3.7736    0.0000 C   0  0  0  0  0  0  0  0  0  0  0  0
    4.9020    4.7170    0.0000 C   0  0  0  0  0  0  0  0  0  0  0  0
    5.7190    3.3019    0.0000 C   0  0  0  0  0  0  0  0  0  0  0  0
    5.7190    2.3585    0.0000 C   0  0  0  0  0  0  0  0  0  0  0  0
    6.5360    1.8868    0.0000 C   0  0  0  0  0  0  0  0  0  0  0  0
    4.9020    1.8868    0.0000 C   0  0  0  0  0  0  0  0  0  0  0  0
    2.7963    2.7038    0.0000 C   0  0  0  0  0  0  0  0  0  0  0  0
    1.8529    2.7038    0.0000 C   0  0  0  0  0  0  0  0  0  0  0  0
    1.3812    3.5208    0.0000 C   0  0  0  0  0  0  0  0  0  0  0  0
    0.4378    3.5208    0.0000 C   0  0  0  0  0  0  0  0  0  0  0  0
    1.8529    4.3378    0.0000 C   0  0  0  0  0  0  0  0  0  0  0  0
    2.7963    4.3378    0.0000 C   0  0  0  0  0  0  0  0  0  0  0  0
    3.2680    5.1548    0.0000 C   0  0  0  0  0  0  0  0  0  0  0  0
    3.2680    3.5208    0.0000 C   0  0  0  0  0  0  0  0  0  0  0  0
    1.4151   -0.1264    0.0000 C   0  0  0  0  0  0  0  0  0  0  0  0
  1  2  1  0  0  0  0
  2 46  2  0  0  0  0
  2  3  1  0  0  0  0
  3  4  2  0  0  0  0
  4  5  1  0  0  0  0
  4  6  1  0  0  0  0
  6  7  2  0  0  0  0
  7  8  1  0  0  0  0
  7 46  1  0  0  0  0
  8  9  2  0  0  0  0
  8 10  1  0  0  0  0
  8 18  1  0  0  0  0
 10 17  2  0  0  0  0
 10 11  1  0  0  0  0
 11 12  2  0  0  0  0
 12 13  1  0  0  0  0
 12 14  1  0  0  0  0
 14 15  2  0  0  0  0
 15 16  1  0  0  0  0
 15 17  1  0  0  0  0
 18 19  1  0  0  0  0
 18 28  1  0  0  0  0
 19 20  1  0  0  0  0
 20 21  2  0  0  0  0
 20 22  1  0  0  0  0
 22 27  2  0  0  0  0
 22 23  1  0  0  0  0
 23 24  2  0  0  0  0
 24 25  1  0  0  0  0
 25 26  2  0  0  0  0
 26 27  1  0  0  0  0
 28 29  2  0  0  0  0
 28 30  1  0  0  0  0
 28 38  1  0  0  0  0
 30 37  2  0  0  0  0
 30 31  1  0  0  0  0
 31 32  2  0  0  0  0
 32 33  1  0  0  0  0
 32 34  1  0  0  0  0
 34 35  2  0  0  0  0
 35 36  1  0  0  0  0
 35 37  1  0  0  0  0
 38 45  2  0  0  0  0
 38 39  1  0  0  0  0
 39 40  2  0  0  0  0
 40 41  1  0  0  0  0
 40 42  1  0  0  0  0
 42 43  2  0  0  0  0
 43 44  1  0  0  0  0
 43 45  1  0  0  0  0
M  END
> <NMREDATA_VERSION>
1.1

> <NMREDATA_LEVEL>
0

> <NMREDATA_SOLVENT>
CDCl3

> <NMREDATA_FORMULA>
C41H44O3P2

> <NMREDATA_SMILES>
Cc1cc(C)cc(c1)P(=O)(C(P(=O)(c1cc(C)cc(c1)C)c1cc(C)cc(c1)C)CC(=O)c1ccccc1)c1cc(C)cc(c1)C

> <NMREDATA_ASSIGNMENT>
P8, 34.10, 8
P28, 34.10, 28

> <NMREDATA_1D_31P>
Larmor=162
34.10, L=P8
34.10, L=P28

$$$$
