
 OpenBabel06112616482D

 25 27  0  0  0  0  0  0  0  0999 V2000
    4.0916   -0.0661    0.0000 C    0  0  0  0  0  0  0  0  0  0  0  0
    3.1906   -0.5000    0.0000 C    0  0  0  0  0  0  0  0  0  0  0  0
    3.1906   -1.5000    0.0000 C    0  0  0  0  0  0  0  0  0  0  0  0
    2.4088   -2.1235    0.0000 C    0  0  0  0  0  0  0  0  0  0  0  0
    2.7036   -3.0791    0.0000 C    0  0  0  0  0  0  0  0  0  0  0  0
    2.0234   -3.8121    0.0000 C    0  0  0  0  0  0  0  0  0  0  0  0
    2.3181   -4.7677    0.0000 Cl   0  0  0  0  0  0  0  0  0  0  0  0
    1.0485   -3.5896    0.0000 C    0  0  0  0  0  0  0  0  0  0  0  0
    0.7537   -2.6340    0.0000 C    0  0  0  0  0  0  0  0  0  0  0  0
    1.4339   -1.9010    0.0000 C    0  0  0  0  0  0  0  0  0  0  0  0
    1.0000   -1.0000    0.0000 C    0  0  0  0  0  0  0  0  0  0  0  0
    0.0000   -1.0000    0.0000 P    0  0  0  0  0  0  0  0  0  0  0  0
    0.0000   -2.0000    0.0000 O    0  0  0  0  0  0  0  0  0  0  0  0
   -1.0000   -1.0000    0.0000 O    0  0  0  0  0  0  0  0  0  0  0  0
   -1.5000   -1.8660    0.0000 C    0  0  0  0  0  0  0  0  0  0  0  0
    0.0000    0.0000    0.0000 O    0  0  0  0  0  0  0  0  0  0  0  0
   -0.8660    0.5000    0.0000 C    0  0  0  0  0  0  0  0  0  0  0  0
    1.4339   -0.0990    0.0000 C    0  0  0  0  0  0  0  0  0  0  0  0
    0.8104    0.6828    0.0000 C    0  0  0  0  0  0  0  0  0  0  0  0
    2.4088    0.1235    0.0000 O    0  0  0  0  0  0  0  0  0  0  0  0
    4.1663    0.9311    0.0000 C    0  0  0  0  0  0  0  0  0  0  0  0
    5.0673    1.3650    0.0000 C    0  0  0  0  0  0  0  0  0  0  0  0
    5.8935    0.8017    0.0000 C    0  0  0  0  0  0  0  0  0  0  0  0
    5.8188   -0.1956    0.0000 C    0  0  0  0  0  0  0  0  0  0  0  0
    4.9179   -0.6294    0.0000 C    0  0  0  0  0  0  0  0  0  0  0  0
  1 25  2  0  0  0  0
  1  2  1  0  0  0  0
  1 21  1  0  0  0  0
  2 20  1  0  0  0  0
  2  3  2  0  0  0  0
  3  4  1  0  0  0  0
  4 10  2  0  0  0  0
  4  5  1  0  0  0  0
  5  6  2  0  0  0  0
  6  7  1  0  0  0  0
  6  8  1  0  0  0  0
  8  9  2  0  0  0  0
  9 10  1  0  0  0  0
 10 11  1  0  0  0  0
 11 12  1  0  0  0  0
 11 18  2  0  0  0  0
 12 13  2  0  0  0  0
 12 14  1  0  0  0  0
 12 16  1  0  0  0  0
 14 15  1  0  0  0  0
 16 17  1  0  0  0  0
 18 19  1  0  0  0  0
 18 20  1  0  0  0  0
 21 22  2  0  0  0  0
 22 23  1  0  0  0  0
 23 24  2  0  0  0  0
 24 25  1  0  0  0  0
M  END
> <NMREDATA_VERSION>
1.1

> <NMREDATA_LEVEL>
0

> <NMREDATA_SOLVENT>
CDCl3

> <NMREDATA_FORMULA>
C19H18ClO4P

> <NMREDATA_SMILES>
COP(=O)(C1=C(C)OC(=Cc2c1ccc(c2)Cl)c1ccccc1)OC

> <NMREDATA_ASSIGNMENT>
P12, 25.40, 12

> <NMREDATA_1D_31P>
Larmor=243
25.40, L=P12

$$$$
