
 OpenBabel06112616452D

 31 35  0  0  0  0  0  0  0  0999 V2000
    4.0000    0.0000    0.0000 C    0  0  0  0  0  0  0  0  0  0  0  0
    3.0000    0.0000    0.0000 C    0  0  0  0  0  0  0  0  0  0  0  0
    2.5000    0.8660    0.0000 C    0  0  0  0  0  0  0  0  0  0  0  0
    1.5000    0.8660    0.0000 C    0  0  0  0  0  0  0  0  0  0  0  0
    1.0000    0.0000    0.0000 C    0  0  0  0  0  0  0  0  0  0  0  0
    0.0000    0.0000    0.0000 P    0  0  0  0  0  0  0  0  0  0  0  0
    0.0000    1.0000    0.0000 O    0  0  0  0  0  0  0  0  0  0  0  0
   -1.0000    0.0000    0.0000 C    0  0  0  0  0  0  0  0  0  0  0  0
   -1.5000   -0.8660    0.0000 C    0  0  0  0  0  0  0  0  0  0  0  0
   -2.5000   -0.8660    0.0000 C    0  0  0  0  0  0  0  0  0  0  0  0
   -3.0000    0.0000    0.0000 C    0  0  0  0  0  0  0  0  0  0  0  0
   -4.0000    0.0000    0.0000 C    0  0  0  0  0  0  0  0  0  0  0  0
   -2.5000    0.8660    0.0000 C    0  0  0  0  0  0  0  0  0  0  0  0
   -1.5000    0.8660    0.0000 C    0  0  0  0  0  0  0  0  0  0  0  0
    0.0000   -1.0000    0.0000 N    0  0  0  0  0  0  0  0  0  0  0  0
   -0.8090   -1.5878    0.0000 C    0  0  0  0  0  0  0  0  0  0  0  0
   -1.7872   -1.3799    0.0000 C    0  0  0  0  0  0  0  0  0  0  0  0
   -2.4563   -2.1230    0.0000 C    0  0  0  0  0  0  0  0  0  0  0  0
   -2.1473   -3.0741    0.0000 C    0  0  0  0  0  0  0  0  0  0  0  0
   -2.8164   -3.8172    0.0000 Cl   0  0  0  0  0  0  0  0  0  0  0  0
   -1.1691   -3.2820    0.0000 C    0  0  0  0  0  0  0  0  0  0  0  0
   -0.5000   -2.5388    0.0000 C    0  0  0  0  0  0  0  0  0  0  0  0
    0.5000   -2.5388    0.0000 C    0  0  0  0  0  0  0  0  0  0  0  0
    1.1691   -3.2820    0.0000 C    0  0  0  0  0  0  0  0  0  0  0  0
    2.1473   -3.0741    0.0000 C    0  0  0  0  0  0  0  0  0  0  0  0
    2.8164   -3.8172    0.0000 Cl   0  0  0  0  0  0  0  0  0  0  0  0
    2.4563   -2.1230    0.0000 C    0  0  0  0  0  0  0  0  0  0  0  0
    1.7872   -1.3799    0.0000 C    0  0  0  0  0  0  0  0  0  0  0  0
    0.8090   -1.5878    0.0000 C    0  0  0  0  0  0  0  0  0  0  0  0
    1.5000   -0.8660    0.0000 C    0  0  0  0  0  0  0  0  0  0  0  0
    2.5000   -0.8660    0.0000 C    0  0  0  0  0  0  0  0  0  0  0  0
  1  2  1  0  0  0  0
  2 31  2  0  0  0  0
  2  3  1  0  0  0  0
  3  4  2  0  0  0  0
  4  5  1  0  0  0  0
  5  6  1  0  0  0  0
  5 30  2  0  0  0  0
  6  7  2  0  0  0  0
  6  8  1  0  0  0  0
  6 15  1  0  0  0  0
  8 14  2  0  0  0  0
  8  9  1  0  0  0  0
  9 10  2  0  0  0  0
 10 11  1  0  0  0  0
 11 12  1  0  0  0  0
 11 13  2  0  0  0  0
 13 14  1  0  0  0  0
 15 29  1  0  0  0  0
 15 16  1  0  0  0  0
 16 22  2  0  0  0  0
 16 17  1  0  0  0  0
 17 18  2  0  0  0  0
 18 19  1  0  0  0  0
 19 20  1  0  0  0  0
 19 21  2  0  0  0  0
 21 22  1  0  0  0  0
 22 23  1  0  0  0  0
 23 29  2  0  0  0  0
 23 24  1  0  0  0  0
 24 25  2  0  0  0  0
 25 26  1  0  0  0  0
 25 27  1  0  0  0  0
 27 28  2  0  0  0  0
 28 29  1  0  0  0  0
 30 31  1  0  0  0  0
M  END
> <NMREDATA_VERSION>
1.1

> <NMREDATA_LEVEL>
0

> <NMREDATA_SOLVENT>
CDCl3

> <NMREDATA_FORMULA>
C26H20Cl2NOP

> <NMREDATA_SMILES>
Cc1ccc(cc1)P(=O)(n1c2ccc(cc2c2c1ccc(c2)Cl)Cl)c1ccc(cc1)C

> <NMREDATA_ASSIGNMENT>
P6, 28.10, 6

> <NMREDATA_1D_31P>
Larmor=162
28.10, L=P6

$$$$
