
 OpenBabel06112616482D

 52 61  0  0  1  0  0  0  0  0999 V2000
   -0.8213   -4.9904    0.0000 C   0  0  0  0  0  0  0  0  0  0  0  0
    0.0331   -5.0802    0.0000 C   0  0  0  0  0  0  0  0  0  0  0  0
    0.5381   -4.3851    0.0000 C   0  0  0  0  0  0  0  0  0  0  0  0
    0.1887   -3.6003    0.0000 C   0  0  0  0  0  0  0  0  0  0  0  0
   -0.6658   -3.5105    0.0000 C   0  0  0  0  0  0  0  0  0  0  0  0
   -1.1708   -4.2055    0.0000 C   0  0  0  0  0  0  0  0  0  0  0  0
   -0.8444   -2.6701    0.0000 C   0  0  0  0  0  0  0  0  0  0  0  0
   -7.1234    0.1255    0.0000 P   0  0  0  0  0  0  0  0  0  0  0  0
   -7.2132    0.9800    0.0000 C   0  0  0  0  0  0  0  0  0  0  0  0
   -7.9981    1.3294    0.0000 C   0  0  0  0  0  0  0  0  0  0  0  0
   -8.0879    2.1839    0.0000 C   0  0  0  0  0  0  0  0  0  0  0  0
   -7.3928    2.6889    0.0000 C   0  0  0  0  0  0  0  0  0  0  0  0
   -6.6080    2.3394    0.0000 C   0  0  0  0  0  0  0  0  0  0  0  0
   -6.5181    1.4850    0.0000 C   0  0  0  0  0  0  0  0  0  0  0  0
   -7.8185   -0.3795    0.0000 C   0  0  0  0  0  0  0  0  0  0  0  0
   -7.7287   -1.2339    0.0000 C   0  0  0  0  0  0  0  0  0  0  0  0
   -8.4237   -1.7389    0.0000 C   0  0  0  0  0  0  0  0  0  0  0  0
   -9.2086   -1.3895    0.0000 C   0  0  0  0  0  0  0  0  0  0  0  0
   -9.2984   -0.5350    0.0000 C   0  0  0  0  0  0  0  0  0  0  0  0
   -8.6034   -0.0300    0.0000 C   0  0  0  0  0  0  0  0  0  0  0  0
   -0.1003   -2.2405    0.0000 C   0  0  0  0  0  0  0  0  0  0  0  0
    0.5381   -2.8154    0.0000 N   0  0  0  0  0  0  0  0  0  0  0  0
    1.3961   -2.7704    0.0000 C   0  0  0  0  0  0  0  0  0  0  0  0
    1.9710   -2.1319    0.0000 C   0  0  2  0  0  0  0  0  0  0  0  0
    2.7365   -2.5220    0.0000 C   0  0  0  0  0  0  0  0  0  0  0  0
    3.4571   -2.0541    0.0000 C   0  0  0  0  0  0  0  0  0  0  0  0
    3.4121   -1.1961    0.0000 C   0  0  0  0  0  0  0  0  0  0  0  0
    2.6466   -0.8060    0.0000 C   0  0  0  0  0  0  0  0  0  0  0  0
    1.9260   -1.2740    0.0000 C   0  0  2  0  0  0  0  0  0  0  0  0
    1.2876   -0.6991    0.0000 C   0  0  0  0  0  0  0  0  0  0  0  0
    0.4296   -0.7440    0.0000 N   0  0  0  0  0  0  0  0  0  0  0  0
   -0.1453   -1.3825    0.0000 C   0  0  0  0  0  0  0  0  0  0  0  0
   -0.9302   -1.0331    0.0000 C   0  0  0  0  0  0  0  0  0  0  0  0
   -3.9064   -2.7514    0.0000 P   0  0  0  0  0  0  0  0  0  0  0  0
   -4.6504   -2.3218    0.0000 C   0  0  0  0  0  0  0  0  0  0  0  0
   -5.3945   -2.7514    0.0000 C   0  0  0  0  0  0  0  0  0  0  0  0
   -6.1385   -2.3218    0.0000 C   0  0  0  0  0  0  0  0  0  0  0  0
   -6.1385   -1.4627    0.0000 C   0  0  0  0  0  0  0  0  0  0  0  0
   -5.3945   -1.0331    0.0000 C   0  0  0  0  0  0  0  0  0  0  0  0
   -4.6504   -1.4627    0.0000 C   0  0  0  0  0  0  0  0  0  0  0  0
   -3.9064   -3.6105    0.0000 C   0  0  0  0  0  0  0  0  0  0  0  0
   -3.1623   -4.0401    0.0000 C   0  0  0  0  0  0  0  0  0  0  0  0
   -3.1623   -4.8993    0.0000 C   0  0  0  0  0  0  0  0  0  0  0  0
   -3.9064   -5.3289    0.0000 C   0  0  0  0  0  0  0  0  0  0  0  0
   -4.6504   -4.8993    0.0000 C   0  0  0  0  0  0  0  0  0  0  0  0
   -4.6504   -4.0401    0.0000 C   0  0  0  0  0  0  0  0  0  0  0  0
   -0.8404   -0.1786    0.0000 C   0  0  0  0  0  0  0  0  0  0  0  0
   -1.4153    0.4598    0.0000 C   0  0  0  0  0  0  0  0  0  0  0  0
   -1.1498    1.2770    0.0000 C   0  0  0  0  0  0  0  0  0  0  0  0
   -0.3094    1.4556    0.0000 C   0  0  0  0  0  0  0  0  0  0  0  0
    0.2655    0.8171    0.0000 C   0  0  0  0  0  0  0  0  0  0  0  0
    0.0000    0.0000    0.0000 C   0  0  0  0  0  0  0  0  0  0  0  0
  1  6  2  0  0  0  0
  1  2  1  0  0  0  0
  2  3  2  0  0  0  0
  3  4  1  0  0  0  0
  4 22  1  0  0  0  0
  4  5  2  0  0  0  0
  5  6  1  0  0  0  0
  5  7  1  0  0  0  0
  7  8  1  0  0  0  0
  7 21  2  0  0  0  0
  8  9  1  0  0  0  0
  8 15  1  0  0  0  0
  9 14  1  0  0  0  0
  9 10  1  0  0  0  0
 10 11  1  0  0  0  0
 11 12  1  0  0  0  0
 12 13  1  0  0  0  0
 13 14  1  0  0  0  0
 15 20  1  0  0  0  0
 15 16  1  0  0  0  0
 16 17  1  0  0  0  0
 17 18  1  0  0  0  0
 18 19  1  0  0  0  0
 19 20  1  0  0  0  0
 21 32  1  0  0  0  0
 21 22  1  0  0  0  0
 22 23  1  0  0  0  0
 24 23  1  1  0  0  0
 24 25  1  0  0  0  0
 24 29  1  0  0  0  0
 25 26  1  0  0  0  0
 26 27  1  0  0  0  0
 27 28  1  0  0  0  0
 29 28  1  1  0  0  0
 29 30  1  0  0  0  0
 30 31  1  0  0  0  0
 31 52  1  0  0  0  0
 31 32  1  0  0  0  0
 32 33  2  0  0  0  0
 33 34  1  0  0  0  0
 33 47  1  0  0  0  0
 34 35  1  0  0  0  0
 34 41  1  0  0  0  0
 35 40  1  0  0  0  0
 35 36  1  0  0  0  0
 36 37  1  0  0  0  0
 37 38  1  0  0  0  0
 38 39  1  0  0  0  0
 39 40  1  0  0  0  0
 41 46  1  0  0  0  0
 41 42  1  0  0  0  0
 42 43  1  0  0  0  0
 43 44  1  0  0  0  0
 44 45  1  0  0  0  0
 45 46  1  0  0  0  0
 47 52  2  0  0  0  0
 47 48  1  0  0  0  0
 48 49  2  0  0  0  0
 49 50  1  0  0  0  0
 50 51  2  0  0  0  0
 51 52  1  0  0  0  0
M  END
> <NMREDATA_VERSION>
1.1

> <NMREDATA_LEVEL>
0

> <NMREDATA_SOLVENT>
CDCl3

> <NMREDATA_FORMULA>
C48H66N2P2

> <NMREDATA_SMILES>
C1CCC(CC1)P(c1c2-c3c(P(C4CCCCC4)C4CCCCC4)c4c(n3C[C@H]3[C@@H](Cn2c2c1cccc2)CCCC3)cccc4)C1CCCCC1

> <NMREDATA_ASSIGNMENT>
P8, -18.50, 8
P34, -18.50, 34

> <NMREDATA_1D_31P>
Larmor=162
-18.50, L=P8
-18.50, L=P34

$$$$
