
 OpenBabel06112616472D

 28 30  0  0  1  0  0  0  0  0999 V2000
   -1.1651   -1.9952    0.0000 C   0  0  0  0  0  0  0  0  0  0  0  0
   -1.5718   -1.0816    0.0000 C   0  0  0  0  0  0  0  0  0  0  0  0
   -2.5663   -0.9771    0.0000 C   0  0  0  0  0  0  0  0  0  0  0  0
   -2.9731   -0.0635    0.0000 C   0  0  0  0  0  0  0  0  0  0  0  0
   -2.3853    0.7455    0.0000 C   0  0  0  0  0  0  0  0  0  0  0  0
   -1.3907    0.6409    0.0000 C   0  0  0  0  0  0  0  0  0  0  0  0
   -0.9840   -0.2726    0.0000 C   0  0  0  0  0  0  0  0  0  0  0  0
    0.0105   -0.1681    0.0000 C   0  0  2  0  0  0  0  0  0  0  0  0
    1.3111   -2.9071    0.0000 P   0  0  0  0  0  0  0  0  0  0  0  0
    1.3111   -3.9071    0.0000 O   0  0  0  0  0  0  0  0  0  0  0  0
    2.1771   -2.4071    0.0000 O   0  0  0  0  0  0  0  0  0  0  0  0
    3.0431   -2.9071    0.0000 C   0  0  0  0  0  0  0  0  0  0  0  0
    3.0431   -3.9071    0.0000 C   0  0  0  0  0  0  0  0  0  0  0  0
    3.5431   -4.7731    0.0000 F   0  0  0  0  0  0  0  0  0  0  0  0
    4.0431   -3.9071    0.0000 F   0  0  0  0  0  0  0  0  0  0  0  0
    2.1771   -4.4071    0.0000 F   0  0  0  0  0  0  0  0  0  0  0  0
    0.4451   -2.4071    0.0000 O   0  0  0  0  0  0  0  0  0  0  0  0
    0.4451   -1.4071    0.0000 C   0  0  0  0  0  0  0  0  0  0  0  0
   -0.4210   -0.9071    0.0000 C   0  0  0  0  0  0  0  0  0  0  0  0
   -1.4210   -0.9071    0.0000 F   0  0  0  0  0  0  0  0  0  0  0  0
   -0.9210   -1.7731    0.0000 F   0  0  0  0  0  0  0  0  0  0  0  0
    0.0000    0.0000    0.0000 F   0  0  0  0  0  0  0  0  0  0  0  0
    0.2184    0.8101    0.0000 C   0  0  0  0  0  0  0  0  0  0  0  0
    1.0845    1.3101    0.0000 C   0  0  0  0  0  0  0  0  0  0  0  0
    1.0845    2.3101    0.0000 C   0  0  0  0  0  0  0  0  0  0  0  0
    0.2184    2.8101    0.0000 C   0  0  0  0  0  0  0  0  0  0  0  0
   -0.6476    2.3101    0.0000 C   0  0  0  0  0  0  0  0  0  0  0  0
   -0.6476    1.3101    0.0000 C   0  0  0  0  0  0  0  0  0  0  0  0
  1  2  1  0  0  0  0
  2  7  2  0  0  0  0
  2  3  1  0  0  0  0
  3  4  2  0  0  0  0
  4  5  1  0  0  0  0
  5  6  2  0  0  0  0
  6 28  1  0  0  0  0
  6  7  1  0  0  0  0
  7  8  1  0  0  0  0
  8  9  1  1  0  0  0
  8 23  1  0  0  0  0
  9 10  2  0  0  0  0
  9 11  1  0  0  0  0
  9 17  1  0  0  0  0
 11 12  1  0  0  0  0
 12 13  1  0  0  0  0
 13 14  1  0  0  0  0
 13 15  1  0  0  0  0
 13 16  1  0  0  0  0
 17 18  1  0  0  0  0
 18 19  1  0  0  0  0
 19 20  1  0  0  0  0
 19 21  1  0  0  0  0
 19 22  1  0  0  0  0
 23 28  2  0  0  0  0
 23 24  1  0  0  0  0
 24 25  2  0  0  0  0
 25 26  1  0  0  0  0
 26 27  2  0  0  0  0
 27 28  1  0  0  0  0
M  END
> <NMREDATA_VERSION>
1.1

> <NMREDATA_LEVEL>
0

> <NMREDATA_SOLVENT>
CDCl3

> <NMREDATA_FORMULA>
C18H15F6O3P

> <NMREDATA_SMILES>
Cc1cccc2-c3c([C@H](c12)P(=O)(OCC(F)(F)F)OCC(F)(F)F)cccc3

> <NMREDATA_ASSIGNMENT>
P9, 27.25, 9

> <NMREDATA_1D_31P>
Larmor=162
27.25, L=P9

$$$$
