
 OpenBabel06112616482D

 24 26  0  0  0  0  0  0  0  0999 V2000
    4.0916   -0.0661    0.0000 C   0  0  0  0  0  0  0  0  0  0  0  0
    3.1906   -0.5000    0.0000 C   0  0  0  0  0  0  0  0  0  0  0  0
    3.1906   -1.5000    0.0000 C   0  0  0  0  0  0  0  0  0  0  0  0
    2.4088   -2.1235    0.0000 C   0  0  0  0  0  0  0  0  0  0  0  0
    2.7036   -3.0791    0.0000 C   0  0  0  0  0  0  0  0  0  0  0  0
    2.0234   -3.8121    0.0000 C   0  0  0  0  0  0  0  0  0  0  0  0
    1.0485   -3.5896    0.0000 C   0  0  0  0  0  0  0  0  0  0  0  0
    0.7537   -2.6340    0.0000 C   0  0  0  0  0  0  0  0  0  0  0  0
    1.4339   -1.9010    0.0000 C   0  0  0  0  0  0  0  0  0  0  0  0
    1.0000   -1.0000    0.0000 C   0  0  0  0  0  0  0  0  0  0  0  0
    0.0000   -1.0000    0.0000 P   0  0  0  0  0  0  0  0  0  0  0  0
    0.0000   -2.0000    0.0000 O   0  0  0  0  0  0  0  0  0  0  0  0
   -1.0000   -1.0000    0.0000 O   0  0  0  0  0  0  0  0  0  0  0  0
   -1.5000   -1.8660    0.0000 C   0  0  0  0  0  0  0  0  0  0  0  0
    0.0000    0.0000    0.0000 O   0  0  0  0  0  0  0  0  0  0  0  0
   -0.8660    0.5000    0.0000 C   0  0  0  0  0  0  0  0  0  0  0  0
    1.4339   -0.0990    0.0000 C   0  0  0  0  0  0  0  0  0  0  0  0
    0.8104    0.6828    0.0000 C   0  0  0  0  0  0  0  0  0  0  0  0
    2.4088    0.1235    0.0000 O   0  0  0  0  0  0  0  0  0  0  0  0
    4.1663    0.9311    0.0000 C   0  0  0  0  0  0  0  0  0  0  0  0
    5.0673    1.3650    0.0000 C   0  0  0  0  0  0  0  0  0  0  0  0
    5.8935    0.8017    0.0000 C   0  0  0  0  0  0  0  0  0  0  0  0
    5.8188   -0.1956    0.0000 C   0  0  0  0  0  0  0  0  0  0  0  0
    4.9179   -0.6294    0.0000 C   0  0  0  0  0  0  0  0  0  0  0  0
  1 24  2  0  0  0  0
  1  2  1  0  0  0  0
  1 20  1  0  0  0  0
  2 19  1  0  0  0  0
  2  3  2  0  0  0  0
  3  4  1  0  0  0  0
  4  9  2  0  0  0  0
  4  5  1  0  0  0  0
  5  6  2  0  0  0  0
  6  7  1  0  0  0  0
  7  8  2  0  0  0  0
  8  9  1  0  0  0  0
  9 10  1  0  0  0  0
 10 11  1  0  0  0  0
 10 17  2  0  0  0  0
 11 12  2  0  0  0  0
 11 13  1  0  0  0  0
 11 15  1  0  0  0  0
 13 14  1  0  0  0  0
 15 16  1  0  0  0  0
 17 18  1  0  0  0  0
 17 19  1  0  0  0  0
 20 21  2  0  0  0  0
 21 22  1  0  0  0  0
 22 23  2  0  0  0  0
 23 24  1  0  0  0  0
M  END
> <NMREDATA_VERSION>
1.1

> <NMREDATA_LEVEL>
0

> <NMREDATA_SOLVENT>
CDCl3

> <NMREDATA_FORMULA>
C19H19O4P

> <NMREDATA_SMILES>
COP(=O)(C1=C(C)OC(=Cc2c1cccc2)c1ccccc1)OC

> <NMREDATA_ASSIGNMENT>
P11, 22.10, 11

> <NMREDATA_1D_31P>
Larmor=243
22.10, L=P11

$$$$
