
 OpenBabel06112616482D

 27 29  0  0  0  0  0  0  0  0999 V2000
   -2.5299   -4.6936    0.0000 C   0  0  0  0  0  0  0  0  0  0  0  0
   -2.1646   -3.7627    0.0000 C   0  0  0  0  0  0  0  0  0  0  0  0
   -1.1757   -3.6137    0.0000 C   0  0  0  0  0  0  0  0  0  0  0  0
   -0.8104   -2.6828    0.0000 C   0  0  0  0  0  0  0  0  0  0  0  0
   -1.4339   -1.9010    0.0000 C   0  0  0  0  0  0  0  0  0  0  0  0
   -1.0000   -1.0000    0.0000 C   0  0  0  0  0  0  0  0  0  0  0  0
    0.0000   -1.0000    0.0000 P   0  0  0  0  0  0  0  0  0  0  0  0
    0.0000   -2.0000    0.0000 O   0  0  0  0  0  0  0  0  0  0  0  0
    1.0000   -1.0000    0.0000 O   0  0  0  0  0  0  0  0  0  0  0  0
    1.5000   -0.1340    0.0000 C   0  0  0  0  0  0  0  0  0  0  0  0
    0.0000    0.0000    0.0000 O   0  0  0  0  0  0  0  0  0  0  0  0
    0.8660    0.5000    0.0000 C   0  0  0  0  0  0  0  0  0  0  0  0
   -1.4339   -0.0990    0.0000 C   0  0  0  0  0  0  0  0  0  0  0  0
   -2.4088    0.1235    0.0000 C   0  0  0  0  0  0  0  0  0  0  0  0
   -2.7036    1.0791    0.0000 C   0  0  0  0  0  0  0  0  0  0  0  0
   -2.0234    1.8121    0.0000 C   0  0  0  0  0  0  0  0  0  0  0  0
   -1.0485    1.5896    0.0000 C   0  0  0  0  0  0  0  0  0  0  0  0
   -0.7537    0.6340    0.0000 C   0  0  0  0  0  0  0  0  0  0  0  0
   -3.1906   -0.5000    0.0000 C   0  0  0  0  0  0  0  0  0  0  0  0
   -3.1906   -1.5000    0.0000 C   0  0  0  0  0  0  0  0  0  0  0  0
   -4.0916   -1.9339    0.0000 C   0  0  0  0  0  0  0  0  0  0  0  0
   -4.1663   -2.9311    0.0000 C   0  0  0  0  0  0  0  0  0  0  0  0
   -5.0673   -3.3650    0.0000 C   0  0  0  0  0  0  0  0  0  0  0  0
   -5.8935   -2.8017    0.0000 C   0  0  0  0  0  0  0  0  0  0  0  0
   -5.8188   -1.8044    0.0000 C   0  0  0  0  0  0  0  0  0  0  0  0
   -4.9179   -1.3706    0.0000 C   0  0  0  0  0  0  0  0  0  0  0  0
   -2.4088   -2.1235    0.0000 O   0  0  0  0  0  0  0  0  0  0  0  0
  1  2  1  0  0  0  0
  2  3  1  0  0  0  0
  3  4  1  0  0  0  0
  4  5  1  0  0  0  0
  5 27  1  0  0  0  0
  5  6  2  0  0  0  0
  6  7  1  0  0  0  0
  6 13  1  0  0  0  0
  7  8  2  0  0  0  0
  7  9  1  0  0  0  0
  7 11  1  0  0  0  0
  9 10  1  0  0  0  0
 11 12  1  0  0  0  0
 13 18  2  0  0  0  0
 13 14  1  0  0  0  0
 14 15  2  0  0  0  0
 14 19  1  0  0  0  0
 15 16  1  0  0  0  0
 16 17  2  0  0  0  0
 17 18  1  0  0  0  0
 19 20  2  0  0  0  0
 20 21  1  0  0  0  0
 20 27  1  0  0  0  0
 21 26  2  0  0  0  0
 21 22  1  0  0  0  0
 22 23  2  0  0  0  0
 23 24  1  0  0  0  0
 24 25  2  0  0  0  0
 25 26  1  0  0  0  0
M  END
> <NMREDATA_VERSION>
1.1

> <NMREDATA_LEVEL>
0

> <NMREDATA_SOLVENT>
CD3COCD3

> <NMREDATA_FORMULA>
C22H25O4P

> <NMREDATA_SMILES>
CCCCC1=C(c2ccccc2C=C(O1)c1ccccc1)P(=O)(OC)OC

> <NMREDATA_ASSIGNMENT>
P7, 20.90, 7

> <NMREDATA_1D_31P>
Larmor=243
20.90, L=P7

$$$$
