
 OpenBabel06112616462D

 48 55  0  0  0  0  0  0  0  0999 V2000
   -0.9888    0.1490    0.0000 C   0  0  0  0  0  0  0  0  0  0  0  0
   -1.3542    1.0799    0.0000 C   0  0  0  0  0  0  0  0  0  0  0  0
   -0.7307    1.8617    0.0000 C   0  0  0  0  0  0  0  0  0  0  0  0
    0.2581    1.7127    0.0000 C   0  0  0  0  0  0  0  0  0  0  0  0
    0.8816    2.4945    0.0000 C   0  0  0  0  0  0  0  0  0  0  0  0
    1.8705    2.3455    0.0000 C   0  0  0  0  0  0  0  0  0  0  0  0
    2.4940    3.1273    0.0000 C   0  0  0  0  0  0  0  0  0  0  0  0
    3.4828    2.9783    0.0000 C   0  0  0  0  0  0  0  0  0  0  0  0
    3.8481    2.0474    0.0000 C   0  0  0  0  0  0  0  0  0  0  0  0
    3.2246    1.2656    0.0000 C   0  0  0  0  0  0  0  0  0  0  0  0
    2.2358    1.4146    0.0000 C   0  0  0  0  0  0  0  0  0  0  0  0
    0.5163    3.4254    0.0000 N   0  0  0  0  0  0  0  0  0  0  0  0
    1.1398    4.2072    0.0000 C   0  0  0  0  0  0  0  0  0  0  0  0
    0.7744    5.1381    0.0000 C   0  0  0  0  0  0  0  0  0  0  0  0
   -0.2144    5.2872    0.0000 C   0  0  0  0  0  0  0  0  0  0  0  0
   -0.4725    3.5745    0.0000 P   0  0  3  0  0  0  0  0  0  0  0  0
   -1.0359    2.7482    0.0000 O   0  0  0  0  0  0  0  0  0  0  0  0
   -2.0331    2.6735    0.0000 C   0  0  0  0  0  0  0  0  0  0  0  0
   -2.3278    1.7179    0.0000 C   0  0  0  0  0  0  0  0  0  0  0  0
   -3.3027    1.4954    0.0000 C   0  0  0  0  0  0  0  0  0  0  0  0
   -3.9829    2.2284    0.0000 C   0  0  0  0  0  0  0  0  0  0  0  0
   -4.9578    2.0059    0.0000 C   0  0  0  0  0  0  0  0  0  0  0  0
   -5.6380    2.7390    0.0000 C   0  0  0  0  0  0  0  0  0  0  0  0
   -5.3433    3.6945    0.0000 C   0  0  0  0  0  0  0  0  0  0  0  0
   -4.3683    3.9171    0.0000 C   0  0  0  0  0  0  0  0  0  0  0  0
   -3.6882    3.1840    0.0000 C   0  0  0  0  0  0  0  0  0  0  0  0
   -2.7132    3.4065    0.0000 C   0  0  0  0  0  0  0  0  0  0  0  0
   -2.5642    4.3954    0.0000 C   0  0  0  0  0  0  0  0  0  0  0  0
   -1.6982    4.8954    0.0000 C   0  0  0  0  0  0  0  0  0  0  0  0
   -1.6982    5.8954    0.0000 C   0  0  0  0  0  0  0  0  0  0  0  0
   -2.5642    6.3954    0.0000 C   0  0  0  0  0  0  0  0  0  0  0  0
   -3.4302    5.8954    0.0000 C   0  0  0  0  0  0  0  0  0  0  0  0
   -4.2962    6.3954    0.0000 C   0  0  0  0  0  0  0  0  0  0  0  0
   -5.1623    5.8954    0.0000 C   0  0  0  0  0  0  0  0  0  0  0  0
   -6.0283    6.3954    0.0000 C   0  0  0  0  0  0  0  0  0  0  0  0
   -6.8943    5.8954    0.0000 C   0  0  0  0  0  0  0  0  0  0  0  0
   -7.7603    6.3954    0.0000 C   0  0  0  0  0  0  0  0  0  0  0  0
   -7.7603    7.3954    0.0000 C   0  0  0  0  0  0  0  0  0  0  0  0
   -8.6264    7.8954    0.0000 C   0  0  0  0  0  0  0  0  0  0  0  0
   -8.6264    8.8954    0.0000 C   0  0  0  0  0  0  0  0  0  0  0  0
   -6.8943    7.8954    0.0000 C   0  0  0  0  0  0  0  0  0  0  0  0
   -6.0283    7.3954    0.0000 C   0  0  0  0  0  0  0  0  0  0  0  0
   -5.1623    4.8954    0.0000 C   0  0  0  0  0  0  0  0  0  0  0  0
   -4.2962    4.3954    0.0000 C   0  0  0  0  0  0  0  0  0  0  0  0
   -3.4302    4.8954    0.0000 C   0  0  0  0  0  0  0  0  0  0  0  0
   -0.7673    4.5300    0.0000 O   0  0  0  0  0  0  0  0  0  0  0  0
    0.6235    0.7818    0.0000 C   0  0  0  0  0  0  0  0  0  0  0  0
    0.0000    0.0000    0.0000 C   0  0  0  0  0  0  0  0  0  0  0  0
  1 48  2  0  0  0  0
  1  2  1  0  0  0  0
  2  3  2  0  0  0  0
  3  4  1  0  0  0  0
  4  5  1  0  0  0  0
  4 47  2  0  0  0  0
  5  6  1  0  0  0  0
  5 12  1  0  0  0  0
  6 11  2  0  0  0  0
  6  7  1  0  0  0  0
  7  8  2  0  0  0  0
  8  9  1  0  0  0  0
  9 10  2  0  0  0  0
 10 11  1  0  0  0  0
 12 13  1  0  0  0  0
 12 16  1  0  0  0  0
 13 14  1  0  0  0  0
 14 15  2  0  0  0  0
 16 46  1  0  0  0  0
 16 17  1  0  0  0  0
 17 18  1  0  0  0  0
 18 27  2  0  0  0  0
 18 19  1  0  0  0  0
 19 20  2  0  0  0  0
 20 21  1  0  0  0  0
 21 26  2  0  0  0  0
 21 22  1  0  0  0  0
 22 23  2  0  0  0  0
 23 24  1  0  0  0  0
 24 25  2  0  0  0  0
 25 26  1  0  0  0  0
 26 27  1  0  0  0  0
 27 28  1  0  0  0  0
 28 45  2  0  0  0  0
 28 29  1  0  0  0  0
 29 30  2  0  0  0  0
 29 46  1  0  0  0  0
 30 31  1  0  0  0  0
 31 32  2  0  0  0  0
 32 45  1  0  0  0  0
 32 33  1  0  0  0  0
 33 34  2  0  0  0  0
 34 35  1  0  0  0  0
 34 43  1  0  0  0  0
 35 42  2  0  0  0  0
 35 36  1  0  0  0  0
 36 37  2  0  0  0  0
 37 38  1  0  0  0  0
 38 39  1  0  0  0  0
 38 41  2  0  0  0  0
 39 40  2  0  0  0  0
 41 42  1  0  0  0  0
 43 44  2  0  0  0  0
 44 45  1  0  0  0  0
 47 48  1  0  0  0  0
M  END
> <NMREDATA_VERSION>
1.1

> <NMREDATA_LEVEL>
0

> <NMREDATA_SOLVENT>
CDCl3

> <NMREDATA_FORMULA>
C44H34NO2P

> <NMREDATA_SMILES>
C=CCN(C(c1ccccc1)c1ccccc1)p1oc2ccc3c(c2c2c(o1)ccc1c2cccc1)ccc(c3)c1ccc(cc1)C=C

> <NMREDATA_ASSIGNMENT>
P16, 146.57, 16

> <NMREDATA_1D_31P>
Larmor=162
146.57, L=P16

$$$$
