
 OpenBabel06112616432D

 28 30  0  0  0  0  0  0  0  0999 V2000
   -0.8381   -3.3871    0.0000 C   0  0  0  0  0  0  0  0  0  0  0  0
   -0.8381   -2.4194    0.0000 C   0  0  0  0  0  0  0  0  0  0  0  0
    0.0000   -1.9355    0.0000 O   0  0  0  0  0  0  0  0  0  0  0  0
    0.0000   -0.9677    0.0000 P   0  0  0  0  0  0  0  0  0  0  0  0
   -0.9677   -0.9677    0.0000 O   0  0  0  0  0  0  0  0  0  0  0  0
    0.9677   -0.9677    0.0000 C   0  0  0  0  0  0  0  0  0  0  0  0
    1.4516   -1.8058    0.0000 C   0  0  0  0  0  0  0  0  0  0  0  0
    0.4839   -3.4820    0.0000 C   0  0  0  0  0  0  0  0  0  0  0  0
    0.9677   -4.3201    0.0000 C   0  0  0  0  0  0  0  0  0  0  0  0
    1.9355   -4.3201    0.0000 C   0  0  0  0  0  0  0  0  0  0  0  0
    2.4194   -5.1582    0.0000 C   0  0  0  0  0  0  0  0  0  0  0  0
    1.9355   -5.9963    0.0000 C   0  0  0  0  0  0  0  0  0  0  0  0
    0.9677   -5.9963    0.0000 C   0  0  0  0  0  0  0  0  0  0  0  0
    0.4839   -5.1582    0.0000 C   0  0  0  0  0  0  0  0  0  0  0  0
    2.4194   -1.8058    0.0000 N   0  0  0  0  0  0  0  0  0  0  0  0
    2.9882   -1.0229    0.0000 C   0  0  0  0  0  0  0  0  0  0  0  0
    2.6891   -0.1025    0.0000 O   0  0  0  0  0  0  0  0  0  0  0  0
    3.9086   -1.3220    0.0000 C   0  0  0  0  0  0  0  0  0  0  0  0
    4.7466   -0.8381    0.0000 C   0  0  0  0  0  0  0  0  0  0  0  0
    5.5847   -1.3220    0.0000 C   0  0  0  0  0  0  0  0  0  0  0  0
    5.5847   -2.2897    0.0000 C   0  0  0  0  0  0  0  0  0  0  0  0
    4.7466   -2.7736    0.0000 C   0  0  0  0  0  0  0  0  0  0  0  0
    3.9086   -2.2897    0.0000 C   0  0  0  0  0  0  0  0  0  0  0  0
    2.9882   -2.5888    0.0000 C   0  0  0  0  0  0  0  0  0  0  0  0
    2.6891   -3.5091    0.0000 O   0  0  0  0  0  0  0  0  0  0  0  0
    0.0000    0.0000    0.0000 O   0  0  0  0  0  0  0  0  0  0  0  0
    0.8381    0.4839    0.0000 C   0  0  0  0  0  0  0  0  0  0  0  0
    1.6762    0.0000    0.0000 C   0  0  0  0  0  0  0  0  0  0  0  0
  1  2  1  0  0  0  0
  2  3  1  0  0  0  0
  3  4  1  0  0  0  0
  4  5  2  0  0  0  0
  4  6  1  0  0  0  0
  4 26  1  0  0  0  0
  6  7  1  0  0  0  0
  7  8  2  3  0  0  0
  7 15  1  0  0  0  0
  8  9  1  0  0  0  0
  9 14  2  0  0  0  0
  9 10  1  0  0  0  0
 10 11  2  0  0  0  0
 11 12  1  0  0  0  0
 12 13  2  0  0  0  0
 13 14  1  0  0  0  0
 15 24  1  0  0  0  0
 15 16  1  0  0  0  0
 16 17  2  0  0  0  0
 16 18  1  0  0  0  0
 18 23  2  0  0  0  0
 18 19  1  0  0  0  0
 19 20  2  0  0  0  0
 20 21  1  0  0  0  0
 21 22  2  0  0  0  0
 22 23  1  0  0  0  0
 23 24  1  0  0  0  0
 24 25  2  0  0  0  0
 26 27  1  0  0  0  0
 27 28  1  0  0  0  0
M  END
> <NMREDATA_VERSION>
1.1

> <NMREDATA_LEVEL>
0

> <NMREDATA_SOLVENT>
CDCl3

> <NMREDATA_FORMULA>
C21H22NO5P

> <NMREDATA_SMILES>
CCOP(=O)(CC(=Cc1ccccc1)N1C(=O)c2c(C1=O)cccc2)OCC

> <NMREDATA_ASSIGNMENT>
P4, 24.17, 4

> <NMREDATA_1D_31P>
Larmor=162MHz
24.17, L=P4

$$$$
