
 OpenBabel06112616462D

 25 28  0  0  0  0  0  0  0  0999 V2000
    0.0000   -1.0000    0.0000 C   0  0  0  0  0  0  0  0  0  0  0  0
   -0.8660   -1.5000    0.0000 C   0  0  0  0  0  0  0  0  0  0  0  0
   -1.7321   -1.0000    0.0000 C   0  0  0  0  0  0  0  0  0  0  0  0
   -1.7321    0.0000    0.0000 C   0  0  0  0  0  0  0  0  0  0  0  0
   -2.5981    0.5000    0.0000 C   0  0  0  0  0  0  0  0  0  0  0  0
   -3.4641    0.0000    0.0000 N   0  0  0  0  0  0  0  0  0  0  0  0
   -3.4641   -1.0000    0.0000 P   0  0  3  0  0  0  0  0  0  0  0  0
   -2.9641   -1.8660    0.0000 C   0  0  0  0  0  0  0  0  0  0  0  0
   -1.9641   -1.8660    0.0000 C   0  0  0  0  0  0  0  0  0  0  0  0
   -1.4641   -2.7321    0.0000 C   0  0  0  0  0  0  0  0  0  0  0  0
   -1.9641   -3.5981    0.0000 C   0  0  0  0  0  0  0  0  0  0  0  0
   -2.9641   -3.5981    0.0000 C   0  0  0  0  0  0  0  0  0  0  0  0
   -3.4641   -2.7321    0.0000 C   0  0  0  0  0  0  0  0  0  0  0  0
   -2.4641   -1.0000    0.0000 O   0  0  0  0  0  0  0  0  0  0  0  0
   -4.3301   -1.5000    0.0000 N   0  0  0  0  0  0  0  0  0  0  0  0
   -5.1962   -1.0000    0.0000 C   0  0  0  0  0  0  0  0  0  0  0  0
   -6.0622   -1.5000    0.0000 C   0  0  0  0  0  0  0  0  0  0  0  0
   -6.9282   -1.0000    0.0000 C   0  0  0  0  0  0  0  0  0  0  0  0
   -6.9282    0.0000    0.0000 C   0  0  0  0  0  0  0  0  0  0  0  0
   -6.0622    0.5000    0.0000 C   0  0  0  0  0  0  0  0  0  0  0  0
   -5.1962    0.0000    0.0000 C   0  0  0  0  0  0  0  0  0  0  0  0
   -4.3301    0.5000    0.0000 C   0  0  0  0  0  0  0  0  0  0  0  0
   -4.3301    1.5000    0.0000 O   0  0  0  0  0  0  0  0  0  0  0  0
   -0.8660    0.5000    0.0000 C   0  0  0  0  0  0  0  0  0  0  0  0
    0.0000    0.0000    0.0000 C   0  0  0  0  0  0  0  0  0  0  0  0
  1 25  2  0  0  0  0
  1  2  1  0  0  0  0
  2  3  2  0  0  0  0
  3  4  1  0  0  0  0
  4  5  1  0  0  0  0
  4 24  2  0  0  0  0
  5  6  1  0  0  0  0
  6 22  1  0  0  0  0
  6  7  1  0  0  0  0
  7  8  1  0  0  0  0
  7 14  2  0  0  0  0
  7 15  1  0  0  0  0
  8 13  2  0  0  0  0
  8  9  1  0  0  0  0
  9 10  2  0  0  0  0
 10 11  1  0  0  0  0
 11 12  2  0  0  0  0
 12 13  1  0  0  0  0
 15 16  1  0  0  0  0
 16 21  2  0  0  0  0
 16 17  1  0  0  0  0
 17 18  2  0  0  0  0
 18 19  1  0  0  0  0
 19 20  2  0  0  0  0
 20 21  1  0  0  0  0
 21 22  1  0  0  0  0
 22 23  2  0  0  0  0
 24 25  1  0  0  0  0
M  END
> <NMREDATA_VERSION>
1.1

> <NMREDATA_LEVEL>
0

> <NMREDATA_SOLVENT>
CDCl3

> <NMREDATA_FORMULA>
C20H17N2O2P

> <NMREDATA_SMILES>
O=C1c2ccccc2NP(=O)(N1Cc1ccccc1)c1ccccc1

> <NMREDATA_ASSIGNMENT>
P7, 15.69, 7

> <NMREDATA_1D_31P>
Larmor=162
15.69, L=P7

$$$$
