
 OpenBabel06112616422D

100116  0  0  1  0  0  0  0  0999 V2000
    0.6467    0.6970    0.0000 C   0  0  0  0  0  0  0  0  0  0  0  0
    1.5737    0.4854    0.0000 C   0  0  0  0  0  0  0  0  0  0  0  0
    1.8540   -0.4232    0.0000 C   0  0  0  0  0  0  0  0  0  0  0  0
    1.2072   -1.1202    0.0000 C   0  0  0  0  0  0  0  0  0  0  0  0
    1.7678   -2.9373    0.0000 C   0  0  0  0  0  0  0  0  0  0  0  0
    2.4145   -2.2403    0.0000 C   0  0  0  0  0  0  0  0  0  0  0  0
    3.3415   -2.4519    0.0000 C   0  0  0  0  0  0  0  0  0  0  0  0
    3.9882   -1.7549    0.0000 C   0  0  0  0  0  0  0  0  0  0  0  0
    3.7079   -0.8463    0.0000 C   0  0  0  0  0  0  0  0  0  0  0  0
    2.7809   -0.6347    0.0000 C   0  0  0  0  0  0  0  0  0  0  0  0
    2.1342   -1.3317    0.0000 C   0  0  0  0  0  0  0  0  0  0  0  0
    0.8408   -3.1489    0.0000 O   0  0  0  0  0  0  0  0  0  0  0  0
    0.4282   -4.0055    0.0000 P   0  0  3  0  0  0  0  0  0  0  0  0
   -0.5226   -4.0055    0.0000 O   0  0  0  0  0  0  0  0  0  0  0  0
   -0.9980   -3.1821    0.0000 C   0  0  0  0  0  0  0  0  0  0  0  0
   -0.5226   -2.3587    0.0000 C   0  0  0  0  0  0  0  0  0  0  0  0
   -0.9980   -1.5352    0.0000 C   0  0  0  0  0  0  0  0  0  0  0  0
   -1.9488   -1.5352    0.0000 C   0  0  0  0  0  0  0  0  0  0  0  0
   -2.4242   -2.3587    0.0000 C   0  0  0  0  0  0  0  0  0  0  0  0
   -1.9488   -3.1821    0.0000 C   0  0  0  0  0  0  0  0  0  0  0  0
   -2.4242   -4.0055    0.0000 O   0  0  0  0  0  0  0  0  0  0  0  0
   -3.3750   -4.0055    0.0000 P   0  0  3  0  0  0  0  0  0  0  0  0
   -3.7876   -4.8622    0.0000 O   0  0  0  0  0  0  0  0  0  0  0  0
   -4.7146   -5.0738    0.0000 C   0  0  0  0  0  0  0  0  0  0  0  0
   -6.0080   -6.4678    0.0000 C   0  0  0  0  0  0  0  0  0  0  0  0
   -5.7278   -7.3764    0.0000 C   0  0  0  0  0  0  0  0  0  0  0  0
   -6.3745   -8.0734    0.0000 C   0  0  0  0  0  0  0  0  0  0  0  0
   -7.3015   -7.8618    0.0000 C   0  0  0  0  0  0  0  0  0  0  0  0
   -7.5817   -6.9532    0.0000 C   0  0  0  0  0  0  0  0  0  0  0  0
   -6.9350   -6.2562    0.0000 C   0  0  0  0  0  0  0  0  0  0  0  0
   -4.4343   -5.9824    0.0000 C   0  0  0  0  0  0  0  0  0  0  0  0
   -3.5073   -6.1939    0.0000 C   0  0  0  0  0  0  0  0  0  0  0  0
   -3.2271   -7.1025    0.0000 C   0  0  0  0  0  0  0  0  0  0  0  0
   -3.8738   -7.7995    0.0000 C   0  0  0  0  0  0  0  0  0  0  0  0
   -4.8008   -7.5879    0.0000 C   0  0  0  0  0  0  0  0  0  0  0  0
   -5.0810   -6.6794    0.0000 C   0  0  0  0  0  0  0  0  0  0  0  0
   -5.4580   -4.4810    0.0000 C   0  0  2  0  0  0  0  0  0  0  0  0
   -6.3622   -4.7748    0.0000 O   0  0  0  0  0  0  0  0  0  0  0  0
   -6.9211   -4.0055    0.0000 C   0  0  0  0  0  0  0  0  0  0  0  0
   -8.5680   -3.0547    0.0000 C   0  0  0  0  0  0  0  0  0  0  0  0
   -9.3914   -3.5301    0.0000 C   0  0  0  0  0  0  0  0  0  0  0  0
  -10.2149   -3.0547    0.0000 C   0  0  0  0  0  0  0  0  0  0  0  0
  -10.2149   -2.1039    0.0000 C   0  0  0  0  0  0  0  0  0  0  0  0
   -9.3914   -1.6285    0.0000 C   0  0  0  0  0  0  0  0  0  0  0  0
   -8.5680   -2.1039    0.0000 C   0  0  0  0  0  0  0  0  0  0  0  0
   -7.7445   -4.4810    0.0000 C   0  0  0  0  0  0  0  0  0  0  0  0
   -7.7445   -5.4318    0.0000 C   0  0  0  0  0  0  0  0  0  0  0  0
   -8.5680   -5.9072    0.0000 C   0  0  0  0  0  0  0  0  0  0  0  0
   -9.3914   -5.4318    0.0000 C   0  0  0  0  0  0  0  0  0  0  0  0
   -9.3914   -4.4810    0.0000 C   0  0  0  0  0  0  0  0  0  0  0  0
   -8.5680   -4.0055    0.0000 C   0  0  0  0  0  0  0  0  0  0  0  0
   -6.3622   -3.2363    0.0000 O   0  0  0  0  0  0  0  0  0  0  0  0
   -5.4580   -3.5301    0.0000 C   0  0  2  0  0  0  0  0  0  0  0  0
   -4.7146   -2.9373    0.0000 C   0  0  0  0  0  0  0  0  0  0  0  0
   -4.1541   -1.1202    0.0000 C   0  0  0  0  0  0  0  0  0  0  0  0
   -4.8008   -0.4232    0.0000 C   0  0  0  0  0  0  0  0  0  0  0  0
   -4.5205    0.4854    0.0000 C   0  0  0  0  0  0  0  0  0  0  0  0
   -3.5935    0.6970    0.0000 C   0  0  0  0  0  0  0  0  0  0  0  0
   -2.9468    0.0000    0.0000 C   0  0  0  0  0  0  0  0  0  0  0  0
   -3.2271   -0.9086    0.0000 C   0  0  0  0  0  0  0  0  0  0  0  0
   -5.3613   -2.2403    0.0000 C   0  0  0  0  0  0  0  0  0  0  0  0
   -6.2883   -2.4519    0.0000 C   0  0  0  0  0  0  0  0  0  0  0  0
   -6.9350   -1.7549    0.0000 C   0  0  0  0  0  0  0  0  0  0  0  0
   -6.6547   -0.8463    0.0000 C   0  0  0  0  0  0  0  0  0  0  0  0
   -5.7278   -0.6347    0.0000 C   0  0  0  0  0  0  0  0  0  0  0  0
   -5.0810   -1.3317    0.0000 C   0  0  0  0  0  0  0  0  0  0  0  0
   -3.7876   -3.1489    0.0000 O   0  0  0  0  0  0  0  0  0  0  0  0
    0.8408   -4.8622    0.0000 O   0  0  0  0  0  0  0  0  0  0  0  0
    1.7678   -5.0738    0.0000 C   0  0  0  0  0  0  0  0  0  0  0  0
    3.0612   -6.4678    0.0000 C   0  0  0  0  0  0  0  0  0  0  0  0
    2.7809   -7.3764    0.0000 C   0  0  0  0  0  0  0  0  0  0  0  0
    3.4277   -8.0734    0.0000 C   0  0  0  0  0  0  0  0  0  0  0  0
    4.3546   -7.8618    0.0000 C   0  0  0  0  0  0  0  0  0  0  0  0
    4.6349   -6.9532    0.0000 C   0  0  0  0  0  0  0  0  0  0  0  0
    3.9882   -6.2562    0.0000 C   0  0  0  0  0  0  0  0  0  0  0  0
    1.4875   -5.9824    0.0000 C   0  0  0  0  0  0  0  0  0  0  0  0
    0.5605   -6.1939    0.0000 C   0  0  0  0  0  0  0  0  0  0  0  0
    0.2803   -7.1025    0.0000 C   0  0  0  0  0  0  0  0  0  0  0  0
    0.9270   -7.7995    0.0000 C   0  0  0  0  0  0  0  0  0  0  0  0
    1.8540   -7.5879    0.0000 C   0  0  0  0  0  0  0  0  0  0  0  0
    2.1342   -6.6794    0.0000 C   0  0  0  0  0  0  0  0  0  0  0  0
    2.5111   -4.4810    0.0000 C   0  0  1  0  0  0  0  0  0  0  0  0
    3.4154   -4.7748    0.0000 O   0  0  0  0  0  0  0  0  0  0  0  0
    3.9743   -4.0055    0.0000 C   0  0  0  0  0  0  0  0  0  0  0  0
    5.6212   -3.0547    0.0000 C   0  0  0  0  0  0  0  0  0  0  0  0
    6.4446   -3.5301    0.0000 C   0  0  0  0  0  0  0  0  0  0  0  0
    7.2680   -3.0547    0.0000 C   0  0  0  0  0  0  0  0  0  0  0  0
    7.2680   -2.1039    0.0000 C   0  0  0  0  0  0  0  0  0  0  0  0
    6.4446   -1.6285    0.0000 C   0  0  0  0  0  0  0  0  0  0  0  0
    5.6212   -2.1039    0.0000 C   0  0  0  0  0  0  0  0  0  0  0  0
    4.7977   -4.4810    0.0000 C   0  0  0  0  0  0  0  0  0  0  0  0
    4.7977   -5.4318    0.0000 C   0  0  0  0  0  0  0  0  0  0  0  0
    5.6212   -5.9072    0.0000 C   0  0  0  0  0  0  0  0  0  0  0  0
    6.4446   -5.4318    0.0000 C   0  0  0  0  0  0  0  0  0  0  0  0
    6.4446   -4.4810    0.0000 C   0  0  0  0  0  0  0  0  0  0  0  0
    5.6212   -4.0055    0.0000 C   0  0  0  0  0  0  0  0  0  0  0  0
    3.4154   -3.2363    0.0000 O   0  0  0  0  0  0  0  0  0  0  0  0
    2.5111   -3.5301    0.0000 C   0  0  1  0  0  0  0  0  0  0  0  0
    0.2803   -0.9086    0.0000 C   0  0  0  0  0  0  0  0  0  0  0  0
    0.0000    0.0000    0.0000 C   0  0  0  0  0  0  0  0  0  0  0  0
  1100  2  0  0  0  0
  1  2  1  0  0  0  0
  2  3  2  0  0  0  0
  3  4  1  0  0  0  0
  4  5  1  0  0  0  0
  4 99  2  0  0  0  0
  5 98  1  0  0  0  0
  5  6  1  0  0  0  0
  5 12  1  0  0  0  0
  6 11  2  0  0  0  0
  6  7  1  0  0  0  0
  7  8  2  0  0  0  0
  8  9  1  0  0  0  0
  9 10  2  0  0  0  0
 10 11  1  0  0  0  0
 12 13  1  0  0  0  0
 13 14  1  0  0  0  0
 13 68  1  0  0  0  0
 14 15  1  0  0  0  0
 15 20  2  0  0  0  0
 15 16  1  0  0  0  0
 16 17  2  0  0  0  0
 17 18  1  0  0  0  0
 18 19  2  0  0  0  0
 19 20  1  0  0  0  0
 20 21  1  0  0  0  0
 21 22  1  0  0  0  0
 22 67  1  0  0  0  0
 22 23  1  0  0  0  0
 23 24  1  0  0  0  0
 24 25  1  0  0  0  0
 24 31  1  0  0  0  0
 24 37  1  0  0  0  0
 25 30  2  0  0  0  0
 25 26  1  0  0  0  0
 26 27  2  0  0  0  0
 27 28  1  0  0  0  0
 28 29  2  0  0  0  0
 29 30  1  0  0  0  0
 31 36  2  0  0  0  0
 31 32  1  0  0  0  0
 32 33  2  0  0  0  0
 33 34  1  0  0  0  0
 34 35  2  0  0  0  0
 35 36  1  0  0  0  0
 37 38  1  6  0  0  0
 37 53  1  0  0  0  0
 38 39  1  0  0  0  0
 39 40  1  0  0  0  0
 39 46  1  0  0  0  0
 39 52  1  0  0  0  0
 40 45  2  0  0  0  0
 40 41  1  0  0  0  0
 41 42  2  0  0  0  0
 42 43  1  0  0  0  0
 43 44  2  0  0  0  0
 44 45  1  0  0  0  0
 46 51  2  0  0  0  0
 46 47  1  0  0  0  0
 47 48  2  0  0  0  0
 48 49  1  0  0  0  0
 49 50  2  0  0  0  0
 50 51  1  0  0  0  0
 53 52  1  6  0  0  0
 53 54  1  0  0  0  0
 54 55  1  0  0  0  0
 54 61  1  0  0  0  0
 54 67  1  0  0  0  0
 55 60  2  0  0  0  0
 55 56  1  0  0  0  0
 56 57  2  0  0  0  0
 57 58  1  0  0  0  0
 58 59  2  0  0  0  0
 59 60  1  0  0  0  0
 61 66  2  0  0  0  0
 61 62  1  0  0  0  0
 62 63  2  0  0  0  0
 63 64  1  0  0  0  0
 64 65  2  0  0  0  0
 65 66  1  0  0  0  0
 68 69  1  0  0  0  0
 69 70  1  0  0  0  0
 69 76  1  0  0  0  0
 69 82  1  0  0  0  0
 70 75  2  0  0  0  0
 70 71  1  0  0  0  0
 71 72  2  0  0  0  0
 72 73  1  0  0  0  0
 73 74  2  0  0  0  0
 74 75  1  0  0  0  0
 76 81  2  0  0  0  0
 76 77  1  0  0  0  0
 77 78  2  0  0  0  0
 78 79  1  0  0  0  0
 79 80  2  0  0  0  0
 80 81  1  0  0  0  0
 82 83  1  6  0  0  0
 82 98  1  0  0  0  0
 83 84  1  0  0  0  0
 84 85  1  0  0  0  0
 84 91  1  0  0  0  0
 84 97  1  0  0  0  0
 85 90  2  0  0  0  0
 85 86  1  0  0  0  0
 86 87  2  0  0  0  0
 87 88  1  0  0  0  0
 88 89  2  0  0  0  0
 89 90  1  0  0  0  0
 91 96  2  0  0  0  0
 91 92  1  0  0  0  0
 92 93  2  0  0  0  0
 93 94  1  0  0  0  0
 94 95  2  0  0  0  0
 95 96  1  0  0  0  0
 98 97  1  6  0  0  0
 99100  1  0  0  0  0
M  END
> <NMREDATA_VERSION>
1.1

> <NMREDATA_LEVEL>
0

> <NMREDATA_SOLVENT>
C6D6

> <NMREDATA_FORMULA>
C88H68O10P2

> <NMREDATA_SMILES>
c1ccc(c(c1)OP1OC([C@@H]2[C@H](C(O1)(c1ccccc1)c1ccccc1)OC(O2)(c1ccccc1)c1ccccc1)(c1ccccc1)c1ccccc1)OP1OC([C@@H]2[C@H](C(O1)(c1ccccc1)c1ccccc1)OC(O2)(c1ccccc1)c1ccccc1)(c1ccccc1)c1ccccc1

> <NMREDATA_ASSIGNMENT>
P13, 133.60, 13
P22, 133.60, 22

> <NMREDATA_1D_31P>
Larmor=202
133.60, L=P13
133.60, L=P22

$$$$
