
 OpenBabel06112616472D

 37 40  0  0  0  0  0  0  0  0999 V2000
   10.5000   -1.5000    0.0000 F   0  0  0  0  0  0  0  0  0  0  0  0
   11.5000   -1.5000    0.0000 B   0  5  0  0  0  0  0  0  0  0  0  0
   11.5000   -2.5000    0.0000 F   0  0  0  0  0  0  0  0  0  0  0  0
   12.5000   -1.5000    0.0000 F   0  0  0  0  0  0  0  0  0  0  0  0
   11.5000   -0.5000    0.0000 F   0  0  0  0  0  0  0  0  0  0  0  0
    2.0000   -2.6340    0.0000 C   0  0  0  0  0  0  0  0  0  0  0  0
    2.5000   -3.5000    0.0000 O   0  0  0  0  0  0  0  0  0  0  0  0
    3.5000   -3.5000    0.0000 C   0  0  0  0  0  0  0  0  0  0  0  0
    4.0000   -2.6340    0.0000 C   0  0  0  0  0  0  0  0  0  0  0  0
    5.0000   -2.6340    0.0000 C   0  0  0  0  0  0  0  0  0  0  0  0
    5.5000   -3.5000    0.0000 C   0  0  0  0  0  0  0  0  0  0  0  0
    6.5000   -3.5000    0.0000 P   0  3  0  0  0  0  0  0  0  0  0  0
    6.5000   -4.5000    0.0000 C   0  0  0  0  0  0  0  0  0  0  0  0
    7.3660   -5.0000    0.0000 C   0  0  0  0  0  0  0  0  0  0  0  0
    7.3660   -6.0000    0.0000 C   0  0  0  0  0  0  0  0  0  0  0  0
    6.5000   -6.5000    0.0000 C   0  0  0  0  0  0  0  0  0  0  0  0
    5.6340   -6.0000    0.0000 C   0  0  0  0  0  0  0  0  0  0  0  0
    5.6340   -5.0000    0.0000 C   0  0  0  0  0  0  0  0  0  0  0  0
    7.5000   -3.5000    0.0000 C   0  0  0  0  0  0  0  0  0  0  0  0
    8.0000   -2.6340    0.0000 C   0  0  0  0  0  0  0  0  0  0  0  0
    9.0000   -2.6340    0.0000 C   0  0  0  0  0  0  0  0  0  0  0  0
    9.5000   -3.5000    0.0000 C   0  0  0  0  0  0  0  0  0  0  0  0
    9.0000   -4.3660    0.0000 C   0  0  0  0  0  0  0  0  0  0  0  0
    8.0000   -4.3660    0.0000 C   0  0  0  0  0  0  0  0  0  0  0  0
    6.5000   -2.5000    0.0000 C   0  0  0  0  0  0  0  0  0  0  0  0
    5.6340   -2.0000    0.0000 C   0  0  0  0  0  0  0  0  0  0  0  0
    5.6340   -1.0000    0.0000 C   0  0  0  0  0  0  0  0  0  0  0  0
    6.5000   -0.5000    0.0000 C   0  0  0  0  0  0  0  0  0  0  0  0
    7.3660   -1.0000    0.0000 C   0  0  0  0  0  0  0  0  0  0  0  0
    7.3660   -2.0000    0.0000 C   0  0  0  0  0  0  0  0  0  0  0  0
    5.0000   -4.3660    0.0000 C   0  0  0  0  0  0  0  0  0  0  0  0
    4.0000   -4.3660    0.0000 C   0  0  0  0  0  0  0  0  0  0  0  0
    1.0000   -2.6340    0.0000 C   0  0  0  0  0  0  0  0  0  0  0  0
    0.5000   -1.7679    0.0000 C   0  0  0  0  0  0  0  0  0  0  0  0
    1.0000   -0.9019    0.0000 C   0  0  0  0  0  0  0  0  0  0  0  0
    2.0000   -0.9019    0.0000 C   0  0  0  0  0  0  0  0  0  0  0  0
    2.5000   -1.7679    0.0000 C   0  0  0  0  0  0  0  0  0  0  0  0
  1  2  1  0  0  0  0
  2  3  1  0  0  0  0
  2  4  1  0  0  0  0
  2  5  1  0  0  0  0
  6 37  2  0  0  0  0
  6  7  1  0  0  0  0
  6 33  1  0  0  0  0
  7  8  1  0  0  0  0
  8 32  2  0  0  0  0
  8  9  1  0  0  0  0
  9 10  2  0  0  0  0
 10 11  1  0  0  0  0
 11 12  1  0  0  0  0
 11 31  2  0  0  0  0
 12 13  1  0  0  0  0
 12 19  1  0  0  0  0
 12 25  1  0  0  0  0
 13 18  2  0  0  0  0
 13 14  1  0  0  0  0
 14 15  2  0  0  0  0
 15 16  1  0  0  0  0
 16 17  2  0  0  0  0
 17 18  1  0  0  0  0
 19 24  2  0  0  0  0
 19 20  1  0  0  0  0
 20 21  2  0  0  0  0
 21 22  1  0  0  0  0
 22 23  2  0  0  0  0
 23 24  1  0  0  0  0
 25 30  2  0  0  0  0
 25 26  1  0  0  0  0
 26 27  2  0  0  0  0
 27 28  1  0  0  0  0
 28 29  2  0  0  0  0
 29 30  1  0  0  0  0
 31 32  1  0  0  0  0
 33 34  2  0  0  0  0
 34 35  1  0  0  0  0
 35 36  2  0  0  0  0
 36 37  1  0  0  0  0
M  END
> <NMREDATA_VERSION>
1.1

> <NMREDATA_LEVEL>
0

> <NMREDATA_SOLVENT>
CDCl3

> <NMREDATA_FORMULA>
C30H24BF4OP

> <NMREDATA_SMILES>
c1ccc(cc1)Oc1ccc(cc1)[P+](c1ccccc1)(c1ccccc1)c1ccccc1.F[B-](F)(F)F

> <NMREDATA_ASSIGNMENT>
P12, 22.50, 12

> <NMREDATA_1D_31P>
Larmor=162
22.50, L=P12

$$$$
