
 OpenBabel06112616472D

 49 54  0  0  0  0  0  0  0  0999 V2000
    0.4037   -1.1400    0.0000 C   0  0  0  0  0  0  0  0  0  0  0  0
   -0.4655   -0.8063    0.0000 C   0  0  0  0  0  0  0  0  0  0  0  0
   -0.9654   -1.5917    0.0000 C   0  0  0  0  0  0  0  0  0  0  0  0
   -1.3762   -0.6127    0.0000 O   0  0  0  0  0  0  0  0  0  0  0  0
   -1.4735    0.3132    0.0000 B   0  0  0  0  0  0  0  0  0  0  0  0
   -2.2798    0.7787    0.0000 C   0  0  0  0  0  0  0  0  0  0  0  0
   -3.0861    0.3132    0.0000 C   0  0  0  0  0  0  0  0  0  0  0  0
   -3.8924    0.7787    0.0000 C   0  0  0  0  0  0  0  0  0  0  0  0
   -7.1176   -1.0833    0.0000 P   0  0  0  0  0  0  0  0  0  0  0  0
   -7.9239   -0.6178    0.0000 C   0  0  0  0  0  0  0  0  0  0  0  0
   -8.7302   -1.0833    0.0000 C   0  0  0  0  0  0  0  0  0  0  0  0
   -9.5365   -0.6178    0.0000 C   0  0  0  0  0  0  0  0  0  0  0  0
   -9.5365    0.3132    0.0000 C   0  0  0  0  0  0  0  0  0  0  0  0
   -8.7302    0.7787    0.0000 C   0  0  0  0  0  0  0  0  0  0  0  0
   -7.9239    0.3132    0.0000 C   0  0  0  0  0  0  0  0  0  0  0  0
   -7.1176   -2.0144    0.0000 C   0  0  0  0  0  0  0  0  0  0  0  0
   -6.3113   -2.4799    0.0000 C   0  0  0  0  0  0  0  0  0  0  0  0
   -6.3113   -3.4109    0.0000 C   0  0  0  0  0  0  0  0  0  0  0  0
   -7.1176   -3.8764    0.0000 C   0  0  0  0  0  0  0  0  0  0  0  0
   -7.9239   -3.4109    0.0000 C   0  0  0  0  0  0  0  0  0  0  0  0
   -7.9239   -2.4799    0.0000 C   0  0  0  0  0  0  0  0  0  0  0  0
   -3.8924    1.7098    0.0000 C   0  0  0  0  0  0  0  0  0  0  0  0
   -5.5050    2.6408    0.0000 C   0  0  0  0  0  0  0  0  0  0  0  0
   -6.3113    2.1753    0.0000 C   0  0  0  0  0  0  0  0  0  0  0  0
   -6.3113    1.2442    0.0000 N   0  0  0  0  0  0  0  0  0  0  0  0
   -7.1176    0.7787    0.0000 C   0  0  0  0  0  0  0  0  0  0  0  0
   -5.5050    0.7787    0.0000 C   0  0  0  0  0  0  0  0  0  0  0  0
   -7.1176    2.6408    0.0000 C   0  0  0  0  0  0  0  0  0  0  0  0
   -7.1176    3.5718    0.0000 C   0  0  0  0  0  0  0  0  0  0  0  0
   -7.9239    4.0373    0.0000 B   0  0  0  0  0  0  0  0  0  0  0  0
   -8.7745    3.6587    0.0000 O   0  0  0  0  0  0  0  0  0  0  0  0
   -9.3974    4.3506    0.0000 C   0  0  0  0  0  0  0  0  0  0  0  0
  -10.2480    4.7292    0.0000 C   0  0  0  0  0  0  0  0  0  0  0  0
  -10.1507    3.8033    0.0000 C   0  0  0  0  0  0  0  0  0  0  0  0
   -8.9319    5.1569    0.0000 C   0  0  0  0  0  0  0  0  0  0  0  0
   -8.8346    6.0828    0.0000 C   0  0  0  0  0  0  0  0  0  0  0  0
   -9.6852    5.7041    0.0000 C   0  0  0  0  0  0  0  0  0  0  0  0
   -8.0212    4.9633    0.0000 O   0  0  0  0  0  0  0  0  0  0  0  0
   -6.3113    4.0373    0.0000 C   0  0  0  0  0  0  0  0  0  0  0  0
   -5.5050    3.5718    0.0000 C   0  0  0  0  0  0  0  0  0  0  0  0
   -4.6987    4.0373    0.0000 N   0  0  0  0  0  0  0  0  0  0  0  0
   -3.8924    3.5718    0.0000 C   0  0  0  0  0  0  0  0  0  0  0  0
   -4.6987    4.9684    0.0000 C   0  0  0  0  0  0  0  0  0  0  0  0
   -3.0861    2.1753    0.0000 C   0  0  0  0  0  0  0  0  0  0  0  0
   -2.2798    1.7098    0.0000 C   0  0  0  0  0  0  0  0  0  0  0  0
   -0.6230    0.6919    0.0000 O   0  0  0  0  0  0  0  0  0  0  0  0
    0.0000    0.0000    0.0000 C   0  0  0  0  0  0  0  0  0  0  0  0
    0.8505   -0.3787    0.0000 C   0  0  0  0  0  0  0  0  0  0  0  0
    0.7532    0.5472    0.0000 C   0  0  0  0  0  0  0  0  0  0  0  0
  1  2  1  0  0  0  0
  2 47  1  0  0  0  0
  2  3  1  0  0  0  0
  2  4  1  0  0  0  0
  4  5  1  0  0  0  0
  5  6  1  0  0  0  0
  5 46  1  0  0  0  0
  6 45  2  0  0  0  0
  6  7  1  0  0  0  0
  7  8  2  0  0  0  0
  8  9  1  0  0  0  0
  8 22  1  0  0  0  0
  9 10  1  0  0  0  0
  9 16  1  0  0  0  0
 10 15  1  0  0  0  0
 10 11  1  0  0  0  0
 11 12  1  0  0  0  0
 12 13  1  0  0  0  0
 13 14  1  0  0  0  0
 14 15  1  0  0  0  0
 16 21  1  0  0  0  0
 16 17  1  0  0  0  0
 17 18  1  0  0  0  0
 18 19  1  0  0  0  0
 19 20  1  0  0  0  0
 20 21  1  0  0  0  0
 22 23  1  0  0  0  0
 22 44  2  0  0  0  0
 23 40  2  0  0  0  0
 23 24  1  0  0  0  0
 24 25  1  0  0  0  0
 24 28  2  0  0  0  0
 25 26  1  0  0  0  0
 25 27  1  0  0  0  0
 28 29  1  0  0  0  0
 29 30  1  0  0  0  0
 29 39  2  0  0  0  0
 30 38  1  0  0  0  0
 30 31  1  0  0  0  0
 31 32  1  0  0  0  0
 32 33  1  0  0  0  0
 32 34  1  0  0  0  0
 32 35  1  0  0  0  0
 35 36  1  0  0  0  0
 35 37  1  0  0  0  0
 35 38  1  0  0  0  0
 39 40  1  0  0  0  0
 40 41  1  0  0  0  0
 41 42  1  0  0  0  0
 41 43  1  0  0  0  0
 44 45  1  0  0  0  0
 46 47  1  0  0  0  0
 47 48  1  0  0  0  0
 47 49  1  0  0  0  0
M  END
> <NMREDATA_VERSION>
1.1

> <NMREDATA_LEVEL>
0

> <NMREDATA_SOLVENT>
C6D6

> <NMREDATA_FORMULA>
C40H63B2N2O4P

> <NMREDATA_SMILES>
CN(c1cc(cc(c1c1ccc(cc1P(C1CCCCC1)C1CCCCC1)B1OC(C(O1)(C)C)(C)C)N(C)C)B1OC(C(O1)(C)C)(C)C)C

> <NMREDATA_ASSIGNMENT>
P9, -8.80, 9

> <NMREDATA_1D_31P>
Larmor=243
-8.80, L=P9

$$$$
