
 OpenBabel06112616472D

 38 41  0  0  0  0  0  0  0  0999 V2000
   -0.1340   -1.5000    0.0000 C    0  0  0  0  0  0  0  0  0  0  0  0
    0.3660   -2.3660    0.0000 C    0  0  0  0  0  0  0  0  0  0  0  0
    1.3660   -2.3660    0.0000 C    0  0  0  0  0  0  0  0  0  0  0  0
    1.8660   -1.5000    0.0000 C    0  0  0  0  0  0  0  0  0  0  0  0
    2.7321   -2.0000    0.0000 C    0  0  0  0  0  0  0  0  0  0  0  0
    3.5981   -2.5000    0.0000 C    0  0  0  0  0  0  0  0  0  0  0  0
    4.4641   -3.0000    0.0000 C    0  0  0  0  0  0  0  0  0  0  0  0
    5.3301   -2.5000    0.0000 N    0  0  0  0  0  0  0  0  0  0  0  0
    5.4347   -1.5055    0.0000 N    0  0  0  0  0  0  0  0  0  0  0  0
    6.4128   -1.2976    0.0000 C    0  0  0  0  0  0  0  0  0  0  0  0
    6.8195   -0.3840    0.0000 C    0  0  0  0  0  0  0  0  0  0  0  0
    6.2318    0.4250    0.0000 C    0  0  0  0  0  0  0  0  0  0  0  0
    6.6385    1.3385    0.0000 C    0  0  0  0  0  0  0  0  0  0  0  0
    7.6330    1.4431    0.0000 C    0  0  0  0  0  0  0  0  0  0  0  0
    8.2208    0.6341    0.0000 C    0  0  0  0  0  0  0  0  0  0  0  0
    7.8141   -0.2795    0.0000 C    0  0  0  0  0  0  0  0  0  0  0  0
    6.9128   -2.1636    0.0000 C    0  0  0  0  0  0  0  0  0  0  0  0
    7.9073   -2.2681    0.0000 Br   0  0  0  0  0  0  0  0  0  0  0  0
    6.2437   -2.9067    0.0000 C    0  0  0  0  0  0  0  0  0  0  0  0
    6.4516   -3.8849    0.0000 C    0  0  0  0  0  0  0  0  0  0  0  0
    2.3660   -0.6340    0.0000 C    0  0  0  0  0  0  0  0  0  0  0  0
    3.3660   -0.6340    0.0000 C    0  0  0  0  0  0  0  0  0  0  0  0
    3.8660    0.2321    0.0000 C    0  0  0  0  0  0  0  0  0  0  0  0
    1.0000   -1.0000    0.0000 O    0  0  0  0  0  0  0  0  0  0  0  0
    1.0000    0.0000    0.0000 P    0  0  0  0  0  0  0  0  0  0  0  0
    2.0000    0.0000    0.0000 O    0  0  0  0  0  0  0  0  0  0  0  0
    1.0000    1.0000    0.0000 C    0  0  0  0  0  0  0  0  0  0  0  0
    0.1340    1.5000    0.0000 C    0  0  0  0  0  0  0  0  0  0  0  0
    0.1340    2.5000    0.0000 C    0  0  0  0  0  0  0  0  0  0  0  0
    1.0000    3.0000    0.0000 C    0  0  0  0  0  0  0  0  0  0  0  0
    1.8660    2.5000    0.0000 C    0  0  0  0  0  0  0  0  0  0  0  0
    1.8660    1.5000    0.0000 C    0  0  0  0  0  0  0  0  0  0  0  0
    0.0000    0.0000    0.0000 C    0  0  0  0  0  0  0  0  0  0  0  0
   -0.5000   -0.8660    0.0000 C    0  0  0  0  0  0  0  0  0  0  0  0
   -1.5000   -0.8660    0.0000 C    0  0  0  0  0  0  0  0  0  0  0  0
   -2.0000    0.0000    0.0000 C    0  0  0  0  0  0  0  0  0  0  0  0
   -1.5000    0.8660    0.0000 C    0  0  0  0  0  0  0  0  0  0  0  0
   -0.5000    0.8660    0.0000 C    0  0  0  0  0  0  0  0  0  0  0  0
  1  2  1  0  0  0  0
  2  3  1  0  0  0  0
  3  4  1  0  0  0  0
  4  5  1  0  0  0  0
  4 21  1  0  0  0  0
  4 24  1  0  0  0  0
  5  6  3  0  0  0  0
  6  7  1  0  0  0  0
  7  8  1  0  0  0  0
  8 19  1  0  0  0  0
  8  9  1  0  0  0  0
  9 10  2  0  0  0  0
 10 11  1  0  0  0  0
 10 17  1  0  0  0  0
 11 16  2  0  0  0  0
 11 12  1  0  0  0  0
 12 13  2  0  0  0  0
 13 14  1  0  0  0  0
 14 15  2  0  0  0  0
 15 16  1  0  0  0  0
 17 18  1  0  0  0  0
 17 19  2  0  0  0  0
 19 20  1  0  0  0  0
 21 22  1  0  0  0  0
 22 23  1  0  0  0  0
 24 25  1  0  0  0  0
 25 26  2  0  0  0  0
 25 27  1  0  0  0  0
 25 33  1  0  0  0  0
 27 32  2  0  0  0  0
 27 28  1  0  0  0  0
 28 29  2  0  0  0  0
 29 30  1  0  0  0  0
 30 31  2  0  0  0  0
 31 32  1  0  0  0  0
 33 38  2  0  0  0  0
 33 34  1  0  0  0  0
 34 35  2  0  0  0  0
 35 36  1  0  0  0  0
 36 37  2  0  0  0  0
 37 38  1  0  0  0  0
M  END
> <NMREDATA_VERSION>
1.1

> <NMREDATA_LEVEL>
0

> <NMREDATA_SOLVENT>
CDCl3

> <NMREDATA_FORMULA>
C32H34BrN2O2P

> <NMREDATA_SMILES>
CCCC(OP(=O)(c1ccccc1)c1ccccc1)(C#CCn1nc(c(c1C)Br)c1ccccc1)CCC

> <NMREDATA_ASSIGNMENT>
P25, 27.34, 25

> <NMREDATA_1D_31P>
Larmor=162
27.34, L=P25

$$$$
