
 OpenBabel06112616432D

 53 56  0  0  0  0  0  0  0  0999 V2000
    0.8508    1.4737    0.0000 O   0  0  0  0  0  0  0  0  0  0  0  0
    1.7017    1.9649    0.0000 C   0  0  0  0  0  0  0  0  0  0  0  0
    0.8508    0.4912    0.0000 C   0  0  0  0  0  0  0  0  0  0  0  0
    1.7017    0.0000    0.0000 C   0  0  0  0  0  0  0  0  0  0  0  0
    2.5525    0.4912    0.0000 O   0  0  0  0  0  0  0  0  0  0  0  0
    2.5525    1.4737    0.0000 C   0  0  0  0  0  0  0  0  0  0  0  0
    1.7017   -0.9825    0.0000 C   0  0  0  0  0  0  0  0  0  0  0  0
    0.8508   -1.4737    0.0000 C   0  0  0  0  0  0  0  0  0  0  0  0
    0.8508   -2.4561    0.0000 P   0  0  0  0  0  0  0  0  0  0  0  0
    0.0000   -2.9474    0.0000 C   0  0  0  0  0  0  0  0  0  0  0  0
    0.0000   -3.9298    0.0000 C   0  0  0  0  0  0  0  0  0  0  0  0
   -0.8508   -4.4211    0.0000 C   0  0  0  0  0  0  0  0  0  0  0  0
   -0.8508   -5.4035    0.0000 O   0  0  0  0  0  0  0  0  0  0  0  0
   -1.7017   -5.8947    0.0000 C   0  0  0  0  0  0  0  0  0  0  0  0
   -1.7017   -3.9298    0.0000 C   0  0  0  0  0  0  0  0  0  0  0  0
   -2.5525   -4.4211    0.0000 O   0  0  0  0  0  0  0  0  0  0  0  0
   -3.4033   -3.9298    0.0000 C   0  0  0  0  0  0  0  0  0  0  0  0
   -1.7017   -2.9474    0.0000 C   0  0  0  0  0  0  0  0  0  0  0  0
   -2.5525   -2.4561    0.0000 O   0  0  0  0  0  0  0  0  0  0  0  0
   -3.4033   -2.9474    0.0000 C   0  0  0  0  0  0  0  0  0  0  0  0
   -0.8508   -2.4561    0.0000 C   0  0  0  0  0  0  0  0  0  0  0  0
    2.5525   -3.4386    0.0000 C   0  0  0  0  0  0  0  0  0  0  0  0
    3.4033   -2.9474    0.0000 C   0  0  0  0  0  0  0  0  0  0  0  0
    4.2542   -3.4386    0.0000 C   0  0  0  0  0  0  0  0  0  0  0  0
    5.1050   -2.9474    0.0000 P   0  0  0  0  0  0  0  0  0  0  0  0
    5.9558   -3.4386    0.0000 C   0  0  0  0  0  0  0  0  0  0  0  0
    6.8067   -2.9474    0.0000 C   0  0  0  0  0  0  0  0  0  0  0  0
    7.6575   -3.4386    0.0000 C   0  0  0  0  0  0  0  0  0  0  0  0
    8.5083   -2.9474    0.0000 O   0  0  0  0  0  0  0  0  0  0  0  0
    9.3592   -3.4386    0.0000 C   0  0  0  0  0  0  0  0  0  0  0  0
    7.6575   -4.4211    0.0000 C   0  0  0  0  0  0  0  0  0  0  0  0
    8.5083   -4.9123    0.0000 O   0  0  0  0  0  0  0  0  0  0  0  0
    9.3592   -4.4211    0.0000 C   0  0  0  0  0  0  0  0  0  0  0  0
    6.8067   -4.9123    0.0000 C   0  0  0  0  0  0  0  0  0  0  0  0
    6.8067   -5.8947    0.0000 O   0  0  0  0  0  0  0  0  0  0  0  0
    7.6575   -6.3860    0.0000 C   0  0  0  0  0  0  0  0  0  0  0  0
    5.9558   -4.4211    0.0000 C   0  0  0  0  0  0  0  0  0  0  0  0
    5.1050   -1.9649    0.0000 C   0  0  0  0  0  0  0  0  0  0  0  0
    4.2542   -1.4737    0.0000 C   0  0  0  0  0  0  0  0  0  0  0  0
    4.2542   -0.4912    0.0000 C   0  0  0  0  0  0  0  0  0  0  0  0
    3.4033    0.0000    0.0000 O   0  0  0  0  0  0  0  0  0  0  0  0
    3.4033    0.9825    0.0000 C   0  0  0  0  0  0  0  0  0  0  0  0
    5.1050    0.0000    0.0000 C   0  0  0  0  0  0  0  0  0  0  0  0
    5.1050    0.9825    0.0000 O   0  0  0  0  0  0  0  0  0  0  0  0
    5.9558    1.4737    0.0000 C   0  0  0  0  0  0  0  0  0  0  0  0
    5.9558   -0.4912    0.0000 C   0  0  0  0  0  0  0  0  0  0  0  0
    6.8067    0.0000    0.0000 O   0  0  0  0  0  0  0  0  0  0  0  0
    7.6575   -0.4912    0.0000 C   0  0  0  0  0  0  0  0  0  0  0  0
    5.9558   -1.4737    0.0000 C   0  0  0  0  0  0  0  0  0  0  0  0
    0.0000   -0.9825    0.0000 C   0  0  0  0  0  0  0  0  0  0  0  0
    0.0000    0.0000    0.0000 C   0  0  0  0  0  0  0  0  0  0  0  0
   -0.8508    0.4912    0.0000 O   0  0  0  0  0  0  0  0  0  0  0  0
   -0.8508    1.4737    0.0000 C   0  0  0  0  0  0  0  0  0  0  0  0
  1  2  1  0  0  0  0
  1  3  1  0  0  0  0
  3 51  2  0  0  0  0
  3  4  1  0  0  0  0
  4  5  1  0  0  0  0
  4  7  2  0  0  0  0
  5  6  1  0  0  0  0
  7  8  1  0  0  0  0
  8  9  1  0  0  0  0
  8 50  2  0  0  0  0
  9 10  1  0  0  0  0
  9 22  1  0  0  0  0
 10 21  2  0  0  0  0
 10 11  1  0  0  0  0
 11 12  2  0  0  0  0
 12 13  1  0  0  0  0
 12 15  1  0  0  0  0
 13 14  1  0  0  0  0
 15 16  1  0  0  0  0
 15 18  2  0  0  0  0
 16 17  1  0  0  0  0
 18 19  1  0  0  0  0
 18 21  1  0  0  0  0
 19 20  1  0  0  0  0
 22 23  1  0  0  0  0
 23 24  1  0  0  0  0
 24 25  1  0  0  0  0
 25 26  1  0  0  0  0
 25 38  1  0  0  0  0
 26 37  2  0  0  0  0
 26 27  1  0  0  0  0
 27 28  2  0  0  0  0
 28 29  1  0  0  0  0
 28 31  1  0  0  0  0
 29 30  1  0  0  0  0
 31 32  1  0  0  0  0
 31 34  2  0  0  0  0
 32 33  1  0  0  0  0
 34 35  1  0  0  0  0
 34 37  1  0  0  0  0
 35 36  1  0  0  0  0
 38 49  2  0  0  0  0
 38 39  1  0  0  0  0
 39 40  2  0  0  0  0
 40 41  1  0  0  0  0
 40 43  1  0  0  0  0
 41 42  1  0  0  0  0
 43 44  1  0  0  0  0
 43 46  2  0  0  0  0
 44 45  1  0  0  0  0
 46 47  1  0  0  0  0
 46 49  1  0  0  0  0
 47 48  1  0  0  0  0
 50 51  1  0  0  0  0
 51 52  1  0  0  0  0
 52 53  1  0  0  0  0
M  END
> <NMREDATA_VERSION>
1.1

> <NMREDATA_LEVEL>
0

> <NMREDATA_SOLVENT>
CDCl3

> <NMREDATA_FORMULA>
C39H50O12P2

> <NMREDATA_SMILES>
COc1cc(cc(c1OC)OC)P(c1cc(OC)c(c(c1)OC)OC)CCCP(c1cc(OC)c(c(c1)OC)OC)c1cc(OC)c(c(c1)OC)OC

> <NMREDATA_ASSIGNMENT>
P9, -11.50, 9
P25, -11.50, 25

> <NMREDATA_1D_31P>
Larmor=162
-11.50, L=P9
-11.50, L=P25

$$$$
