
 OpenBabel06112616482D

 27 31  0  0  0  0  0  0  0  0999 V2000
   -1.9058   -0.1428    0.0000 S    0  0  0  0  0  0  0  0  0  0  0  0
   -0.9749    0.2225    0.0000 P    0  0  0  0  0  0  0  0  0  0  0  0
   -1.1240   -0.7663    0.0000 Cl   0  0  0  0  0  0  0  0  0  0  0  0
   -1.4088    1.1235    0.0000 O    0  0  0  0  0  0  0  0  0  0  0  0
   -0.9749    2.0245    0.0000 C    0  0  0  0  0  0  0  0  0  0  0  0
   -1.6551    2.7575    0.0000 C    0  0  0  0  0  0  0  0  0  0  0  0
   -2.6300    2.5350    0.0000 Br   0  0  0  0  0  0  0  0  0  0  0  0
   -1.3603    3.7131    0.0000 C    0  0  0  0  0  0  0  0  0  0  0  0
   -0.3854    3.9356    0.0000 C    0  0  0  0  0  0  0  0  0  0  0  0
   -0.0907    4.8912    0.0000 C    0  0  0  0  0  0  0  0  0  0  0  0
    0.8843    5.1137    0.0000 C    0  0  0  0  0  0  0  0  0  0  0  0
    1.5644    4.3806    0.0000 C    0  0  0  0  0  0  0  0  0  0  0  0
    1.2697    3.4251    0.0000 C    0  0  0  0  0  0  0  0  0  0  0  0
    0.2948    3.2026    0.0000 C    0  0  0  0  0  0  0  0  0  0  0  0
    0.0000    2.2470    0.0000 C    0  0  0  0  0  0  0  0  0  0  0  0
    0.7818    1.6235    0.0000 C    0  0  0  0  0  0  0  0  0  0  0  0
    0.7818    0.6235    0.0000 C    0  0  0  0  0  0  0  0  0  0  0  0
    1.6479    0.1235    0.0000 C    0  0  0  0  0  0  0  0  0  0  0  0
    1.6479   -0.8765    0.0000 Br   0  0  0  0  0  0  0  0  0  0  0  0
    2.5139    0.6235    0.0000 C    0  0  0  0  0  0  0  0  0  0  0  0
    2.5139    1.6235    0.0000 C    0  0  0  0  0  0  0  0  0  0  0  0
    3.3799    2.1235    0.0000 C    0  0  0  0  0  0  0  0  0  0  0  0
    3.3799    3.1235    0.0000 C    0  0  0  0  0  0  0  0  0  0  0  0
    2.5139    3.6235    0.0000 C    0  0  0  0  0  0  0  0  0  0  0  0
    1.6479    3.1235    0.0000 C    0  0  0  0  0  0  0  0  0  0  0  0
    1.6479    2.1235    0.0000 C    0  0  0  0  0  0  0  0  0  0  0  0
    0.0000    0.0000    0.0000 O    0  0  0  0  0  0  0  0  0  0  0  0
  1  2  2  0  0  0  0
  2 27  1  0  0  0  0
  2  3  1  0  0  0  0
  2  4  1  0  0  0  0
  4  5  1  0  0  0  0
  5 15  2  0  0  0  0
  5  6  1  0  0  0  0
  6  7  1  0  0  0  0
  6  8  2  0  0  0  0
  8  9  1  0  0  0  0
  9 14  2  0  0  0  0
  9 10  1  0  0  0  0
 10 11  2  0  0  0  0
 11 12  1  0  0  0  0
 12 13  2  0  0  0  0
 13 14  1  0  0  0  0
 14 15  1  0  0  0  0
 15 16  1  0  0  0  0
 16 26  2  0  0  0  0
 16 17  1  0  0  0  0
 17 18  2  0  0  0  0
 17 27  1  0  0  0  0
 18 19  1  0  0  0  0
 18 20  1  0  0  0  0
 20 21  2  0  0  0  0
 21 26  1  0  0  0  0
 21 22  1  0  0  0  0
 22 23  2  0  0  0  0
 23 24  1  0  0  0  0
 24 25  2  0  0  0  0
 25 26  1  0  0  0  0
M  END
> <NMREDATA_VERSION>
1.1

> <NMREDATA_LEVEL>
0

> <NMREDATA_SOLVENT>
CDCl3

> <NMREDATA_FORMULA>
C20H10Br2ClO2PS

> <NMREDATA_SMILES>
Brc1cc2ccccc2c2-c3c(OP(=S)(Oc12)Cl)c(Br)cc1c3cccc1

> <NMREDATA_ASSIGNMENT>
P2, 64.35, 2

> <NMREDATA_1D_31P>
Larmor=160
64.35, L=P2

$$$$
