
 OpenBabel06112616432D

 20 22  0  0  1  0  0  0  0  0999 V2000
    0.8660   -0.5000    0.0000 C   0  0  0  0  0  0  0  0  0  0  0  0
    1.7321    0.0000    0.0000 C   0  0  3  0  0  0  0  0  0  0  0  0
    1.7321    1.0000    0.0000 C   0  0  0  0  0  0  0  0  0  0  0  0
    2.5981    1.5000    0.0000 C   0  0  0  0  0  0  0  0  0  0  0  0
    3.4641    1.0000    0.0000 O   0  0  0  0  0  0  0  0  0  0  0  0
    3.4641    0.0000    0.0000 P   0  0  3  0  0  0  0  0  0  0  0  0
    3.9641   -0.8660    0.0000 O   0  0  0  0  0  0  0  0  0  0  0  0
    4.4641    0.0000    0.0000 O   0  0  0  0  0  0  0  0  0  0  0  0
    4.9641    0.8660    0.0000 C   0  0  0  0  0  0  0  0  0  0  0  0
    4.4641    1.7321    0.0000 C   0  0  0  0  0  0  0  0  0  0  0  0
    4.9641    2.5981    0.0000 C   0  0  0  0  0  0  0  0  0  0  0  0
    5.9641    2.5981    0.0000 C   0  0  0  0  0  0  0  0  0  0  0  0
    6.4641    1.7321    0.0000 C   0  0  0  0  0  0  0  0  0  0  0  0
    5.9641    0.8660    0.0000 C   0  0  0  0  0  0  0  0  0  0  0  0
    2.5981   -0.5000    0.0000 N   0  0  0  0  0  0  0  0  0  0  0  0
    0.8660   -1.5000    0.0000 C   0  0  0  0  0  0  0  0  0  0  0  0
    0.0000   -2.0000    0.0000 C   0  0  0  0  0  0  0  0  0  0  0  0
   -0.8660   -1.5000    0.0000 C   0  0  0  0  0  0  0  0  0  0  0  0
   -0.8660   -0.5000    0.0000 C   0  0  0  0  0  0  0  0  0  0  0  0
    0.0000    0.0000    0.0000 C   0  0  0  0  0  0  0  0  0  0  0  0
  1 20  2  0  0  0  0
  1  2  1  0  0  0  0
  1 16  1  0  0  0  0
  2 15  1  0  0  0  0
  2  3  1  0  0  0  0
  3  4  1  0  0  0  0
  4  5  1  0  0  0  0
  5  6  1  0  0  0  0
  6  7  2  0  0  0  0
  6  8  1  0  0  0  0
  6 15  1  0  0  0  0
  8  9  1  0  0  0  0
  9 14  2  0  0  0  0
  9 10  1  0  0  0  0
 10 11  2  0  0  0  0
 11 12  1  0  0  0  0
 12 13  2  0  0  0  0
 13 14  1  0  0  0  0
 16 17  2  0  0  0  0
 17 18  1  0  0  0  0
 18 19  2  0  0  0  0
 19 20  1  0  0  0  0
M  END
> <NMREDATA_VERSION>
1.1

> <NMREDATA_LEVEL>
0

> <NMREDATA_SOLVENT>
CDCl3

> <NMREDATA_FORMULA>
C15H16NO3P

> <NMREDATA_SMILES>
O=P1(OCCC(N1)c1ccccc1)Oc1ccccc1

> <NMREDATA_ASSIGNMENT>
P6, -1.70, 6

> <NMREDATA_1D_31P>
Larmor=162MHz
-1.70, L=P6

$$$$
