
 OpenBabel06112616462D

 35 41  0  0  0  0  0  0  0  0999 V2000
    1.7790    0.6982    0.0000 O    0  0  0  0  0  0  0  0  0  0  0  0
    0.9972    0.0747    0.0000 P    0  0  0  0  0  0  0  0  0  0  0  0
    0.8482    1.0636    0.0000 Cl   0  0  0  0  0  0  0  0  0  0  0  0
    1.6774   -0.6583    0.0000 O    0  0  0  0  0  0  0  0  0  0  0  0
    1.5283   -1.6472    0.0000 C    0  0  0  0  0  0  0  0  0  0  0  0
    2.3944   -2.1472    0.0000 C    0  0  0  0  0  0  0  0  0  0  0  0
    3.2604   -1.6472    0.0000 C    0  0  0  0  0  0  0  0  0  0  0  0
    3.3649   -0.6526    0.0000 C    0  0  0  0  0  0  0  0  0  0  0  0
    4.3431   -0.4447    0.0000 C    0  0  0  0  0  0  0  0  0  0  0  0
    4.8431   -1.3107    0.0000 S    0  0  0  0  0  0  0  0  0  0  0  0
    4.1739   -2.0539    0.0000 C    0  0  0  0  0  0  0  0  0  0  0  0
    2.3944   -3.1472    0.0000 C    0  0  0  0  0  0  0  0  0  0  0  0
    1.5283   -3.6472    0.0000 C    0  0  0  0  0  0  0  0  0  0  0  0
    1.5283   -4.6472    0.0000 C    0  0  0  0  0  0  0  0  0  0  0  0
    0.6623   -5.1472    0.0000 C    0  0  0  0  0  0  0  0  0  0  0  0
   -0.2037   -4.6472    0.0000 C    0  0  0  0  0  0  0  0  0  0  0  0
   -0.2037   -3.6472    0.0000 C    0  0  0  0  0  0  0  0  0  0  0  0
    0.6623   -3.1472    0.0000 C    0  0  0  0  0  0  0  0  0  0  0  0
    0.6623   -2.1472    0.0000 C    0  0  0  0  0  0  0  0  0  0  0  0
   -0.2686   -1.7818    0.0000 C    0  0  0  0  0  0  0  0  0  0  0  0
   -0.5633   -0.8262    0.0000 C    0  0  0  0  0  0  0  0  0  0  0  0
   -1.5382   -0.6037    0.0000 C    0  0  0  0  0  0  0  0  0  0  0  0
   -1.8330    0.3519    0.0000 C    0  0  0  0  0  0  0  0  0  0  0  0
   -2.7793    0.6751    0.0000 C    0  0  0  0  0  0  0  0  0  0  0  0
   -2.7644    1.6750    0.0000 C    0  0  0  0  0  0  0  0  0  0  0  0
   -1.8088    1.9697    0.0000 S    0  0  0  0  0  0  0  0  0  0  0  0
   -1.2332    1.1520    0.0000 C    0  0  0  0  0  0  0  0  0  0  0  0
   -2.2184   -1.3368    0.0000 C    0  0  0  0  0  0  0  0  0  0  0  0
   -1.9237   -2.2923    0.0000 C    0  0  0  0  0  0  0  0  0  0  0  0
   -2.6038   -3.0254    0.0000 C    0  0  0  0  0  0  0  0  0  0  0  0
   -2.3091   -3.9810    0.0000 C    0  0  0  0  0  0  0  0  0  0  0  0
   -1.3342   -4.2035    0.0000 C    0  0  0  0  0  0  0  0  0  0  0  0
   -0.6540   -3.4704    0.0000 C    0  0  0  0  0  0  0  0  0  0  0  0
   -0.9487   -2.5149    0.0000 C    0  0  0  0  0  0  0  0  0  0  0  0
    0.0000    0.0000    0.0000 O    0  0  0  0  0  0  0  0  0  0  0  0
  1  2  2  0  0  0  0
  2 35  1  0  0  0  0
  2  3  1  0  0  0  0
  2  4  1  0  0  0  0
  4  5  1  0  0  0  0
  5 19  2  0  0  0  0
  5  6  1  0  0  0  0
  6  7  1  0  0  0  0
  6 12  2  0  0  0  0
  7 11  2  0  0  0  0
  7  8  1  0  0  0  0
  8  9  2  0  0  0  0
  9 10  1  0  0  0  0
 10 11  1  0  0  0  0
 12 13  1  0  0  0  0
 13 18  2  0  0  0  0
 13 14  1  0  0  0  0
 14 15  2  0  0  0  0
 15 16  1  0  0  0  0
 16 17  2  0  0  0  0
 17 18  1  0  0  0  0
 18 19  1  0  0  0  0
 19 20  1  0  0  0  0
 20 34  2  0  0  0  0
 20 21  1  0  0  0  0
 21 22  2  0  0  0  0
 21 35  1  0  0  0  0
 22 23  1  0  0  0  0
 22 28  1  0  0  0  0
 23 27  2  0  0  0  0
 23 24  1  0  0  0  0
 24 25  2  0  0  0  0
 25 26  1  0  0  0  0
 26 27  1  0  0  0  0
 28 29  2  0  0  0  0
 29 34  1  0  0  0  0
 29 30  1  0  0  0  0
 30 31  2  0  0  0  0
 31 32  1  0  0  0  0
 32 33  2  0  0  0  0
 33 34  1  0  0  0  0
M  END
> <NMREDATA_VERSION>
1.1

> <NMREDATA_LEVEL>
0

> <NMREDATA_SOLVENT>
CD3OD

> <NMREDATA_FORMULA>
C28H16ClO3PS2

> <NMREDATA_SMILES>
ClP1(=O)Oc2c(cc3c(c2-c2c(O1)c(cc1c2cccc1)c1cscc1)cccc3)c1cscc1

> <NMREDATA_ASSIGNMENT>
P2, 9.50, 2

> <NMREDATA_1D_31P>
Larmor=200
9.50, L=P2

$$$$
