
 OpenBabel06112616482D

 36 42  0  0  0  0  0  0  0  0999 V2000
    6.6541    2.2783    0.0000 C   0  0  0  0  0  0  0  0  0  0  0  0
    6.8031    1.2895    0.0000 C   0  0  0  0  0  0  0  0  0  0  0  0
    6.1229    0.5564    0.0000 C   0  0  0  0  0  0  0  0  0  0  0  0
    6.5568   -0.3445    0.0000 C   0  0  0  0  0  0  0  0  0  0  0  0
    5.9935   -1.1708    0.0000 C   0  0  0  0  0  0  0  0  0  0  0  0
    4.9963   -1.0961    0.0000 C   0  0  0  0  0  0  0  0  0  0  0  0
    4.5624   -0.1951    0.0000 C   0  0  0  0  0  0  0  0  0  0  0  0
    5.1257    0.6312    0.0000 C   0  0  0  0  0  0  0  0  0  0  0  0
    4.5624    1.4574    0.0000 N   0  0  0  0  0  0  0  0  0  0  0  0
    3.5736    1.3083    0.0000 P   0  0  0  0  0  0  0  0  0  0  0  0
    3.2788    0.3528    0.0000 O   0  0  0  0  0  0  0  0  0  0  0  0
    2.3479   -0.0126    0.0000 C   0  0  0  0  0  0  0  0  0  0  0  0
    2.3479   -1.0126    0.0000 C   0  0  0  0  0  0  0  0  0  0  0  0
    1.4819   -1.5126    0.0000 C   0  0  0  0  0  0  0  0  0  0  0  0
    0.6159   -1.0126    0.0000 C   0  0  0  0  0  0  0  0  0  0  0  0
    0.6159   -0.0126    0.0000 C   0  0  0  0  0  0  0  0  0  0  0  0
    1.4819    0.4874    0.0000 C   0  0  0  0  0  0  0  0  0  0  0  0
    1.3329    1.4763    0.0000 C   0  0  0  0  0  0  0  0  0  0  0  0
    0.9390    1.9500    0.0000 C   0  0  0  0  0  0  0  0  0  0  0  0
    0.9329    2.4416    0.0000 C   0  0  0  0  0  0  0  0  0  0  0  0
    1.3134    2.7530    0.0000 C   0  0  0  0  0  0  0  0  0  0  0  0
    1.7942    2.6496    0.0000 C   0  0  0  0  0  0  0  0  0  0  0  0
    2.0130    2.2093    0.0000 C   0  0  0  0  0  0  0  0  0  0  0  0
    3.0103    2.1346    0.0000 O   0  0  0  0  0  0  0  0  0  0  0  0
    0.3516    2.1355    0.0000 C   0  0  0  0  0  0  0  0  0  0  0  0
   -0.2428    1.9741    0.0000 C   0  0  0  0  0  0  0  0  0  0  0  0
   -0.6557    1.5168    0.0000 C   0  0  0  0  0  0  0  0  0  0  0  0
   -0.7557    0.9090    0.0000 C   0  0  0  0  0  0  0  0  0  0  0  0
   -0.5113    0.3435    0.0000 C   0  0  0  0  0  0  0  0  0  0  0  0
    0.0000    0.0000    0.0000 C   0  0  0  0  0  0  0  0  0  0  0  0
    4.8572    2.4130    0.0000 C   0  0  0  0  0  0  0  0  0  0  0  0
    4.0753    3.0365    0.0000 C   0  0  0  0  0  0  0  0  0  0  0  0
    4.2244    4.0253    0.0000 C   0  0  0  0  0  0  0  0  0  0  0  0
    5.1552    4.3906    0.0000 C   0  0  0  0  0  0  0  0  0  0  0  0
    5.9371    3.7671    0.0000 C   0  0  0  0  0  0  0  0  0  0  0  0
    5.7880    2.7783    0.0000 C   0  0  0  0  0  0  0  0  0  0  0  0
  1 36  1  0  0  0  0
  1  2  2  0  0  0  0
  2  3  1  0  0  0  0
  3  8  2  0  0  0  0
  3  4  1  0  0  0  0
  4  5  2  0  0  0  0
  5  6  1  0  0  0  0
  6  7  2  0  0  0  0
  7  8  1  0  0  0  0
  8  9  1  0  0  0  0
  9 10  1  0  0  0  0
  9 31  1  0  0  0  0
 10 24  1  0  0  0  0
 10 11  1  0  0  0  0
 11 12  1  0  0  0  0
 12 17  2  0  0  0  0
 12 13  1  0  0  0  0
 13 14  2  0  0  0  0
 14 15  1  0  0  0  0
 15 16  2  0  0  0  0
 16 30  1  0  0  0  0
 16 17  1  0  0  0  0
 17 18  1  0  0  0  0
 18 23  2  0  0  0  0
 18 19  1  0  0  0  0
 19 20  2  0  0  0  0
 19 25  1  0  0  0  0
 20 21  1  0  0  0  0
 21 22  2  0  0  0  0
 22 23  1  0  0  0  0
 23 24  1  0  0  0  0
 25 26  1  0  0  0  0
 26 27  1  0  0  0  0
 27 28  1  0  0  0  0
 28 29  1  0  0  0  0
 29 30  1  0  0  0  0
 31 36  2  0  0  0  0
 31 32  1  0  0  0  0
 32 33  2  0  0  0  0
 33 34  1  0  0  0  0
 34 35  2  0  0  0  0
 35 36  1  0  0  0  0
M  END
> <NMREDATA_VERSION>
1.1

> <NMREDATA_LEVEL>
0

> <NMREDATA_SOLVENT>
CDCl3

> <NMREDATA_FORMULA>
C32H28NO2P

> <NMREDATA_SMILES>
C1CCCc2cccc3c2c2c(CC1)cccc2op(o3)N1c2ccccc2C=Cc2c1cccc2

> <NMREDATA_ASSIGNMENT>
P10, 132.56, 10

> <NMREDATA_1D_31P>
Larmor=121
132.56, L=P10

$$$$
