
 OpenBabel06112616452D

 26 29  0  0  0  0  0  0  0  0999 V2000
   -1.0417   -2.0387    0.0000 C   0  0  0  0  0  0  0  0  0  0  0  0
   -0.4971   -1.2000    0.0000 C   0  0  0  0  0  0  0  0  0  0  0  0
   -0.9511   -0.3090    0.0000 P   0  0  3  0  0  0  0  0  0  0  0  0
   -1.9146   -0.5767    0.0000 O   0  0  0  0  0  0  0  0  0  0  0  0
   -1.5388    0.5000    0.0000 C   0  0  0  0  0  0  0  0  0  0  0  0
   -2.5388    0.5000    0.0000 C   0  0  0  0  0  0  0  0  0  0  0  0
   -3.0388   -0.3660    0.0000 C   0  0  0  0  0  0  0  0  0  0  0  0
   -4.0388   -0.3660    0.0000 C   0  0  0  0  0  0  0  0  0  0  0  0
   -4.5388    0.5000    0.0000 C   0  0  0  0  0  0  0  0  0  0  0  0
   -5.5388    0.5000    0.0000 C   0  0  0  0  0  0  0  0  0  0  0  0
   -4.0388    1.3660    0.0000 C   0  0  0  0  0  0  0  0  0  0  0  0
   -3.0388    1.3660    0.0000 C   0  0  0  0  0  0  0  0  0  0  0  0
   -0.9511    1.3090    0.0000 C   0  0  0  0  0  0  0  0  0  0  0  0
   -1.2601    2.2601    0.0000 C   0  0  0  0  0  0  0  0  0  0  0  0
   -2.2382    2.4680    0.0000 C   0  0  0  0  0  0  0  0  0  0  0  0
   -2.5472    3.4190    0.0000 C   0  0  0  0  0  0  0  0  0  0  0  0
   -1.8781    4.1622    0.0000 C   0  0  0  0  0  0  0  0  0  0  0  0
   -2.1871    5.1132    0.0000 C   0  0  0  0  0  0  0  0  0  0  0  0
   -0.9000    3.9543    0.0000 C   0  0  0  0  0  0  0  0  0  0  0  0
   -0.5909    3.0032    0.0000 C   0  0  0  0  0  0  0  0  0  0  0  0
    0.0000    1.0000    0.0000 C   0  0  0  0  0  0  0  0  0  0  0  0
    0.8660    1.5000    0.0000 C   0  0  0  0  0  0  0  0  0  0  0  0
    1.7321    1.0000    0.0000 C   0  0  0  0  0  0  0  0  0  0  0  0
    1.7321    0.0000    0.0000 C   0  0  0  0  0  0  0  0  0  0  0  0
    0.8660   -0.5000    0.0000 C   0  0  0  0  0  0  0  0  0  0  0  0
    0.0000    0.0000    0.0000 C   0  0  0  0  0  0  0  0  0  0  0  0
  1  2  1  0  0  0  0
  2  3  1  0  0  0  0
  3 26  1  0  0  0  0
  3  4  2  0  0  0  0
  3  5  1  0  0  0  0
  5  6  1  0  0  0  0
  5 13  2  0  0  0  0
  6 12  2  0  0  0  0
  6  7  1  0  0  0  0
  7  8  2  0  0  0  0
  8  9  1  0  0  0  0
  9 10  1  0  0  0  0
  9 11  2  0  0  0  0
 11 12  1  0  0  0  0
 13 14  1  0  0  0  0
 13 21  1  0  0  0  0
 14 20  2  0  0  0  0
 14 15  1  0  0  0  0
 15 16  2  0  0  0  0
 16 17  1  0  0  0  0
 17 18  1  0  0  0  0
 17 19  2  0  0  0  0
 19 20  1  0  0  0  0
 21 26  2  0  0  0  0
 21 22  1  0  0  0  0
 22 23  2  0  0  0  0
 23 24  1  0  0  0  0
 24 25  2  0  0  0  0
 25 26  1  0  0  0  0
M  END
> <NMREDATA_VERSION>
1.1

> <NMREDATA_LEVEL>
0

> <NMREDATA_SOLVENT>
CDCl3

> <NMREDATA_FORMULA>
C24H23OP

> <NMREDATA_SMILES>
CCP1(=O)c2ccccc2C(=C1c1ccc(cc1)C)c1ccc(cc1)C

> <NMREDATA_ASSIGNMENT>
P3, 53.50, 3

> <NMREDATA_1D_31P>
Larmor=162
53.50, L=P3

$$$$
