
 OpenBabel06112616492D

 31 35  0  0  1  0  0  0  0  0999 V2000
    5.1821   -0.4861    0.0000 C   0  0  0  0  0  0  0  0  0  0  0  0
    4.3401   -0.9722    0.0000 C   0  0  0  0  0  0  0  0  0  0  0  0
    4.3401   -1.9444    0.0000 C   0  0  0  0  0  0  0  0  0  0  0  0
    3.4981   -2.4306    0.0000 C   0  0  0  0  0  0  0  0  0  0  0  0
    2.6562   -1.9444    0.0000 C   0  0  0  0  0  0  0  0  0  0  0  0
    1.8142   -2.4306    0.0000 N   0  0  0  0  0  0  0  0  0  0  0  0
    1.8142   -3.4028    0.0000 C   0  0  0  0  0  0  0  0  0  0  0  0
    0.9722   -3.8889    0.0000 C   0  0  0  0  0  0  0  0  0  0  0  0
    0.1303   -3.4028    0.0000 C   0  0  0  0  0  0  0  0  0  0  0  0
   -0.7117   -3.8889    0.0000 C   0  0  0  0  0  0  0  0  0  0  0  0
   -1.5537   -3.4028    0.0000 C   0  0  0  0  0  0  0  0  0  0  0  0
   -1.5537   -2.4306    0.0000 C   0  0  0  0  0  0  0  0  0  0  0  0
   -0.7117   -1.9444    0.0000 C   0  0  0  0  0  0  0  0  0  0  0  0
    0.1303   -2.4306    0.0000 C   0  0  0  0  0  0  0  0  0  0  0  0
    0.9722   -1.9444    0.0000 C   0  0  3  0  0  0  0  0  0  0  0  0
    0.9722    0.0000    0.0000 P   0  0  0  0  0  0  0  0  0  0  0  0
    1.9444    0.0000    0.0000 O   0  0  0  0  0  0  0  0  0  0  0  0
    0.9722    0.9722    0.0000 C   0  0  0  0  0  0  0  0  0  0  0  0
    0.1303    1.4583    0.0000 C   0  0  0  0  0  0  0  0  0  0  0  0
    0.1303    2.4306    0.0000 C   0  0  0  0  0  0  0  0  0  0  0  0
    0.9722    2.9167    0.0000 C   0  0  0  0  0  0  0  0  0  0  0  0
    1.8142    2.4306    0.0000 C   0  0  0  0  0  0  0  0  0  0  0  0
    1.8142    1.4583    0.0000 C   0  0  0  0  0  0  0  0  0  0  0  0
    0.0000    0.0000    0.0000 C   0  0  0  0  0  0  0  0  0  0  0  0
   -0.4861   -0.8420    0.0000 C   0  0  0  0  0  0  0  0  0  0  0  0
   -1.4583   -0.8420    0.0000 C   0  0  0  0  0  0  0  0  0  0  0  0
   -1.9444    0.0000    0.0000 C   0  0  0  0  0  0  0  0  0  0  0  0
   -1.4583    0.8420    0.0000 C   0  0  0  0  0  0  0  0  0  0  0  0
   -0.4861    0.8420    0.0000 C   0  0  0  0  0  0  0  0  0  0  0  0
    2.6562   -0.9722    0.0000 C   0  0  0  0  0  0  0  0  0  0  0  0
    3.4981   -0.4861    0.0000 C   0  0  0  0  0  0  0  0  0  0  0  0
  1  2  1  0  0  0  0
  2 31  2  0  0  0  0
  2  3  1  0  0  0  0
  3  4  2  0  0  0  0
  4  5  1  0  0  0  0
  5  6  1  0  0  0  0
  5 30  2  0  0  0  0
  6 15  1  0  0  0  0
  6  7  1  0  0  0  0
  7  8  1  0  0  0  0
  8  9  1  0  0  0  0
  9 14  2  0  0  0  0
  9 10  1  0  0  0  0
 10 11  2  0  0  0  0
 11 12  1  0  0  0  0
 12 13  2  0  0  0  0
 13 14  1  0  0  0  0
 14 15  1  0  0  0  0
 15 16  1  0  0  0  0
 16 17  2  0  0  0  0
 16 18  1  0  0  0  0
 16 24  1  0  0  0  0
 18 23  2  0  0  0  0
 18 19  1  0  0  0  0
 19 20  2  0  0  0  0
 20 21  1  0  0  0  0
 21 22  2  0  0  0  0
 22 23  1  0  0  0  0
 24 29  2  0  0  0  0
 24 25  1  0  0  0  0
 25 26  2  0  0  0  0
 26 27  1  0  0  0  0
 27 28  2  0  0  0  0
 28 29  1  0  0  0  0
 30 31  1  0  0  0  0
M  END
> <NMREDATA_VERSION>
1.1

> <NMREDATA_LEVEL>
0

> <NMREDATA_SOLVENT>
CDCl3

> <NMREDATA_FORMULA>
C28H26NOP

> <NMREDATA_SMILES>
Cc1ccc(cc1)N1CCc2c(C1P(=O)(c1ccccc1)c1ccccc1)cccc2

> <NMREDATA_ASSIGNMENT>
P16, 30.22, 16

> <NMREDATA_1D_31P>
Larmor=162
30.22, L=P16

$$$$
