
 OpenBabel06112616452D

 28 31  0  0  0  0  0  0  0  0999 V2000
    1.9375   -2.9063    0.0000 C    0  0  0  0  0  0  0  0  0  0  0  0
    1.0985   -2.4219    0.0000 C    0  0  0  0  0  0  0  0  0  0  0  0
    1.0985   -1.4531    0.0000 C    0  0  0  0  0  0  0  0  0  0  0  0
    1.9375   -0.9688    0.0000 C    0  0  0  0  0  0  0  0  0  0  0  0
    1.9375    0.0000    0.0000 P    0  0  0  0  0  0  0  0  0  0  0  0
    2.9063    0.0000    0.0000 C    0  0  0  0  0  0  0  0  0  0  0  0
    3.3906    0.8390    0.0000 C    0  0  0  0  0  0  0  0  0  0  0  0
    4.3594    0.8390    0.0000 C    0  0  0  0  0  0  0  0  0  0  0  0
    4.8438    0.0000    0.0000 C    0  0  0  0  0  0  0  0  0  0  0  0
    4.3594   -0.8390    0.0000 C    0  0  0  0  0  0  0  0  0  0  0  0
    3.3906   -0.8390    0.0000 C    0  0  0  0  0  0  0  0  0  0  0  0
    1.9375    0.9688    0.0000 C    0  0  0  0  0  0  0  0  0  0  0  0
    1.0985    1.4531    0.0000 C    0  0  0  0  0  0  0  0  0  0  0  0
    1.0985    2.4219    0.0000 C    0  0  0  0  0  0  0  0  0  0  0  0
    1.9375    2.9063    0.0000 C    0  0  0  0  0  0  0  0  0  0  0  0
    2.7765    2.4219    0.0000 C    0  0  0  0  0  0  0  0  0  0  0  0
    2.7765    1.4531    0.0000 C    0  0  0  0  0  0  0  0  0  0  0  0
    0.0000    0.0000    0.0000 N    0  0  0  0  0  0  0  0  0  0  0  0
   -0.4844    0.8390    0.0000 C    0  0  0  0  0  0  0  0  0  0  0  0
   -1.4531    0.8390    0.0000 C    0  0  0  0  0  0  0  0  0  0  0  0
   -1.9375    1.6779    0.0000 C    0  0  0  0  0  0  0  0  0  0  0  0
   -2.9063    1.6779    0.0000 Cl   0  0  0  0  0  0  0  0  0  0  0  0
   -1.4531    2.5169    0.0000 N    0  0  0  0  0  0  0  0  0  0  0  0
   -0.4844    2.5169    0.0000 C    0  0  0  0  0  0  0  0  0  0  0  0
    0.0000    3.3558    0.0000 Cl   0  0  0  0  0  0  0  0  0  0  0  0
    0.0000    1.6779    0.0000 C    0  0  0  0  0  0  0  0  0  0  0  0
    2.7765   -1.4531    0.0000 C    0  0  0  0  0  0  0  0  0  0  0  0
    2.7765   -2.4219    0.0000 C    0  0  0  0  0  0  0  0  0  0  0  0
  1 28  2  0  0  0  0
  1  2  1  0  0  0  0
  2  3  2  0  0  0  0
  3  4  1  0  0  0  0
  4  5  1  0  0  0  0
  4 27  2  0  0  0  0
  5  6  1  0  0  0  0
  5 12  1  0  0  0  0
  5 18  2  0  0  0  0
  6 11  2  0  0  0  0
  6  7  1  0  0  0  0
  7  8  2  0  0  0  0
  8  9  1  0  0  0  0
  9 10  2  0  0  0  0
 10 11  1  0  0  0  0
 12 17  2  0  0  0  0
 12 13  1  0  0  0  0
 13 14  2  0  0  0  0
 14 15  1  0  0  0  0
 15 16  2  0  0  0  0
 16 17  1  0  0  0  0
 18 19  1  0  0  0  0
 19 26  2  0  0  0  0
 19 20  1  0  0  0  0
 20 21  2  0  0  0  0
 21 22  1  0  0  0  0
 21 23  1  0  0  0  0
 23 24  2  0  0  0  0
 24 25  1  0  0  0  0
 24 26  1  0  0  0  0
 27 28  1  0  0  0  0
M  END
> <NMREDATA_VERSION>
1.1

> <NMREDATA_LEVEL>
0

> <NMREDATA_SOLVENT>
CDCl3

> <NMREDATA_FORMULA>
C23H17Cl2N2P

> <NMREDATA_SMILES>
Clc1cc(cc(n1)Cl)N=P(c1ccccc1)(c1ccccc1)c1ccccc1

> <NMREDATA_ASSIGNMENT>
P5, 9.30, 5

> <NMREDATA_1D_31P>
Larmor=121
9.30, L=P5

$$$$
