
 OpenBabel06112616432D

 36 39  0  0  0  0  0  0  0  0999 V2000
   -1.5000    1.5981    0.0000 O   0  0  0  0  0  0  0  0  0  0  0  0
   -2.5000    1.5981    0.0000 N   0  3  0  0  0  0  0  0  0  0  0  0
   -3.0000    2.4641    0.0000 O   0  5  0  0  0  0  0  0  0  0  0  0
   -3.0000    0.7321    0.0000 C   0  0  0  0  0  0  0  0  0  0  0  0
   -4.0000    0.7321    0.0000 C   0  0  0  0  0  0  0  0  0  0  0  0
   -4.5000   -0.1340    0.0000 C   0  0  0  0  0  0  0  0  0  0  0  0
   -4.0000   -1.0000    0.0000 C   0  0  0  0  0  0  0  0  0  0  0  0
   -3.0000   -1.0000    0.0000 C   0  0  0  0  0  0  0  0  0  0  0  0
   -2.5000   -0.1340    0.0000 C   0  0  0  0  0  0  0  0  0  0  0  0
   -1.5000   -0.1340    0.0000 C   0  0  0  0  0  0  0  0  0  0  0  0
   -1.0000   -1.0000    0.0000 O   0  0  0  0  0  0  0  0  0  0  0  0
    0.0000   -1.0000    0.0000 P   0  0  0  0  0  0  0  0  0  0  0  0
    0.0000   -2.0000    0.0000 B   0  5  0  0  0  0  0  0  0  0  0  0
    1.0000   -1.0000    0.0000 O   0  0  0  0  0  0  0  0  0  0  0  0
    1.5000   -1.8660    0.0000 C   0  0  0  0  0  0  0  0  0  0  0  0
    2.5000   -1.8660    0.0000 C   0  0  0  0  0  0  0  0  0  0  0  0
    3.0000   -2.7321    0.0000 C   0  0  0  0  0  0  0  0  0  0  0  0
    4.0000   -2.7321    0.0000 C   0  0  0  0  0  0  0  0  0  0  0  0
    4.5000   -1.8660    0.0000 C   0  0  0  0  0  0  0  0  0  0  0  0
    4.0000   -1.0000    0.0000 C   0  0  0  0  0  0  0  0  0  0  0  0
    3.0000   -1.0000    0.0000 C   0  0  0  0  0  0  0  0  0  0  0  0
    2.5000   -0.1340    0.0000 N   0  3  0  0  0  0  0  0  0  0  0  0
    1.5000   -0.1340    0.0000 O   0  0  0  0  0  0  0  0  0  0  0  0
    3.0000    0.7321    0.0000 O   0  5  0  0  0  0  0  0  0  0  0  0
    0.0000    0.0000    0.0000 C   0  0  0  0  0  0  0  0  0  0  0  0
   -0.8090    0.5878    0.0000 C   0  0  0  0  0  0  0  0  0  0  0  0
   -0.5000    1.5388    0.0000 N   0  0  0  0  0  0  0  0  0  0  0  0
   -1.0878    2.3479    0.0000 C   0  0  0  0  0  0  0  0  0  0  0  0
   -0.6810    3.2614    0.0000 C   0  0  0  0  0  0  0  0  0  0  0  0
   -1.2688    4.0704    0.0000 C   0  0  0  0  0  0  0  0  0  0  0  0
   -0.8621    4.9840    0.0000 C   0  0  0  0  0  0  0  0  0  0  0  0
    0.1324    5.0885    0.0000 C   0  0  0  0  0  0  0  0  0  0  0  0
    0.7202    4.2795    0.0000 C   0  0  0  0  0  0  0  0  0  0  0  0
    0.3135    3.3659    0.0000 C   0  0  0  0  0  0  0  0  0  0  0  0
    0.5000    1.5388    0.0000 N   0  0  0  0  0  0  0  0  0  0  0  0
    0.8090    0.5878    0.0000 N   0  0  0  0  0  0  0  0  0  0  0  0
  1  2  2  0  0  0  0
  2  3  1  0  0  0  0
  2  4  1  0  0  0  0
  4  9  2  0  0  0  0
  4  5  1  0  0  0  0
  5  6  2  0  0  0  0
  6  7  1  0  0  0  0
  7  8  2  0  0  0  0
  8  9  1  0  0  0  0
  9 10  1  0  0  0  0
 10 11  1  0  0  0  0
 11 12  1  0  0  0  0
 12 13  1  0  0  0  0
 12 14  1  0  0  0  0
 12 25  1  0  0  0  0
 14 15  1  0  0  0  0
 15 16  1  0  0  0  0
 16 21  2  0  0  0  0
 16 17  1  0  0  0  0
 17 18  2  0  0  0  0
 18 19  1  0  0  0  0
 19 20  2  0  0  0  0
 20 21  1  0  0  0  0
 21 22  1  0  0  0  0
 22 23  2  0  0  0  0
 22 24  1  0  0  0  0
 25 36  1  0  0  0  0
 25 26  2  0  0  0  0
 26 27  1  0  0  0  0
 27 28  1  0  0  0  0
 27 35  1  0  0  0  0
 28 29  1  0  0  0  0
 29 34  2  0  0  0  0
 29 30  1  0  0  0  0
 30 31  2  0  0  0  0
 31 32  1  0  0  0  0
 32 33  2  0  0  0  0
 33 34  1  0  0  0  0
 35 36  2  0  0  0  0
M  END
> <NMREDATA_VERSION>
1.1

> <NMREDATA_LEVEL>
0

> <NMREDATA_SOLVENT>
CDCl3

> <NMREDATA_FORMULA>
C23H21BN5O6P

> <NMREDATA_SMILES>
[O-][N+](=O)c1ccccc1COP(c1nnn(c1)Cc1ccccc1)(OCc1ccccc1[N+](=O)[O-])[BH3-]

> <NMREDATA_ASSIGNMENT>
P12, 122.50, 12

> <NMREDATA_1D_31P>
Larmor=121
122.50, L=P12

$$$$
