
 OpenBabel06112616422D

 34 37  0  0  1  0  0  0  0  0999 V2000
   -0.9737   -0.9737    0.0000 O   0  0  0  0  0  0  0  0  0  0  0  0
    0.0000   -0.9737    0.0000 S   0  0  0  0  0  0  0  0  0  0  0  0
    0.0000   -1.9474    0.0000 O   0  0  0  0  0  0  0  0  0  0  0  0
    0.9737   -0.9737    0.0000 C   0  0  0  0  0  0  0  0  0  0  0  0
    1.8169   -0.4868    0.0000 F   0  0  0  0  0  0  0  0  0  0  0  0
    0.9737    0.0000    0.0000 F   0  0  0  0  0  0  0  0  0  0  0  0
    1.4605   -1.8169    0.0000 F   0  0  0  0  0  0  0  0  0  0  0  0
    0.0000    0.0000    0.0000 O   0  0  0  0  0  0  0  0  0  0  0  0
   -0.8432    0.4868    0.0000 C   0  0  0  0  0  0  0  0  0  0  0  0
   -0.8432    1.4605    0.0000 C   0  0  0  0  0  0  0  0  0  0  0  0
   -1.6865    1.9474    0.0000 C   0  0  0  0  0  0  0  0  0  0  0  0
   -2.5297    1.4605    0.0000 C   0  0  0  0  0  0  0  0  0  0  0  0
   -2.5297    0.4868    0.0000 C   0  0  0  0  0  0  0  0  0  0  0  0
   -1.6865    0.0000    0.0000 C   0  0  0  0  0  0  0  0  0  0  0  0
   -3.2533    2.1120    0.0000 P   0  0  1  0  0  0  0  0  0  0  0  0
   -4.1793    2.4129    0.0000 O   0  0  0  0  0  0  0  0  0  0  0  0
   -4.7005    0.8090    0.0000 C   0  0  2  0  0  0  0  0  0  0  0  0
   -4.4980   -0.1434    0.0000 C   0  0  0  0  0  0  0  0  0  0  0  0
   -5.2216   -0.7949    0.0000 C   0  0  2  0  0  0  0  0  0  0  0  0
   -5.0192   -1.7473    0.0000 C   0  0  0  0  0  0  0  0  0  0  0  0
   -6.1476   -0.4940    0.0000 C   0  0  0  0  0  0  0  0  0  0  0  0
   -6.3501    0.4584    0.0000 C   0  0  0  0  0  0  0  0  0  0  0  0
   -5.6265    1.1099    0.0000 C   0  0  1  0  0  0  0  0  0  0  0  0
   -5.8289    2.0623    0.0000 C   0  0  0  0  0  0  0  0  0  0  0  0
   -5.1054    2.7138    0.0000 C   0  0  0  0  0  0  0  0  0  0  0  0
   -6.7550    2.3632    0.0000 C   0  0  0  0  0  0  0  0  0  0  0  0
   -2.8573    3.0016    0.0000 C   0  0  0  0  0  0  0  0  0  0  0  0
   -3.3441    3.8448    0.0000 C   0  0  0  0  0  0  0  0  0  0  0  0
   -4.3178    3.8448    0.0000 C   0  0  0  0  0  0  0  0  0  0  0  0
   -4.8046    4.6880    0.0000 C   0  0  0  0  0  0  0  0  0  0  0  0
   -4.3178    5.5313    0.0000 C   0  0  0  0  0  0  0  0  0  0  0  0
   -3.3441    5.5313    0.0000 C   0  0  0  0  0  0  0  0  0  0  0  0
   -2.8573    4.6880    0.0000 C   0  0  0  0  0  0  0  0  0  0  0  0
   -1.8889    2.8998    0.0000 C   0  0  0  0  0  0  0  0  0  0  0  0
  1  2  2  0  0  0  0
  2  3  2  0  0  0  0
  2  4  1  0  0  0  0
  2  8  1  0  0  0  0
  4  5  1  0  0  0  0
  4  6  1  0  0  0  0
  4  7  1  0  0  0  0
  8  9  1  0  0  0  0
  9 14  2  0  0  0  0
  9 10  1  0  0  0  0
 10 11  2  0  0  0  0
 11 34  1  0  0  0  0
 11 12  1  0  0  0  0
 12 13  2  0  0  0  0
 12 15  1  0  0  0  0
 13 14  1  0  0  0  0
 15 16  2  6  0  0  0
 15 17  1  0  0  0  0
 15 27  1  0  0  0  0
 17 18  1  6  0  0  0
 17 23  1  0  0  0  0
 18 19  1  0  0  0  0
 19 20  1  6  0  0  0
 19 21  1  0  0  0  0
 21 22  1  0  0  0  0
 22 23  1  0  0  0  0
 23 24  1  1  0  0  0
 24 25  1  0  0  0  0
 24 26  1  0  0  0  0
 27 28  1  0  0  0  0
 27 34  2  0  0  0  0
 28 33  2  0  0  0  0
 28 29  1  0  0  0  0
 29 30  2  0  0  0  0
 30 31  1  0  0  0  0
 31 32  2  0  0  0  0
 32 33  1  0  0  0  0
M  END
> <NMREDATA_VERSION>
1.1

> <NMREDATA_LEVEL>
0

> <NMREDATA_SOLVENT>
CDCl3

> <NMREDATA_FORMULA>
C25H28F3O4PS

> <NMREDATA_SMILES>
C[C@@H]1CC[C@H]([C@@H](C1)[P@@]1(=O)C(=Cc2c1ccc(c2)OS(=O)(=O)C(F)(F)F)c1ccccc1)C(C)C

> <NMREDATA_ASSIGNMENT>
P15, 57.10, 15

> <NMREDATA_1D_31P>
Larmor=121
57.10, L=P15

$$$$
