
 OpenBabel06112616492D

 36 40  0  0  1  0  0  0  0  0999 V2000
   -5.3030    3.3093    0.0000 C   0  0  0  0  0  0  0  0  0  0  0  0
   -4.8586    2.5395    0.0000 C   0  0  0  0  0  0  0  0  0  0  0  0
   -3.0808    2.5395    0.0000 O   0  0  0  0  0  0  0  0  0  0  0  0
   -2.1919    0.9999    0.0000 C   0  0  0  0  0  0  0  0  0  0  0  0
   -2.6364    0.2301    0.0000 C   0  0  0  0  0  0  0  0  0  0  0  0
   -2.1919   -0.5397    0.0000 C   0  0  0  0  0  0  0  0  0  0  0  0
   -1.3030   -0.5397    0.0000 C   0  0  0  0  0  0  0  0  0  0  0  0
   -0.8586    0.2301    0.0000 C   0  0  0  0  0  0  0  0  0  0  0  0
   -1.3030    0.9999    0.0000 C   0  0  0  0  0  0  0  0  0  0  0  0
   -1.0730    1.8585    0.0000 C   0  0  0  0  0  0  0  0  0  0  0  0
   -1.8428    2.3029    0.0000 C   0  0  0  0  0  0  0  0  0  0  0  0
   -4.9220    0.5251    0.0000 P   0  0  0  0  0  0  0  0  0  0  0  0
   -4.9220   -0.3638    0.0000 C   0  0  0  0  0  0  0  0  0  0  0  0
   -5.6918   -0.8082    0.0000 C   0  0  0  0  0  0  0  0  0  0  0  0
   -5.6918   -1.6971    0.0000 C   0  0  0  0  0  0  0  0  0  0  0  0
   -4.9220   -2.1415    0.0000 C   0  0  0  0  0  0  0  0  0  0  0  0
   -4.1522   -1.6971    0.0000 C   0  0  0  0  0  0  0  0  0  0  0  0
   -4.1522   -0.8082    0.0000 C   0  0  0  0  0  0  0  0  0  0  0  0
   -5.6918    0.9696    0.0000 C   0  0  0  0  0  0  0  0  0  0  0  0
   -5.6918    1.8585    0.0000 C   0  0  0  0  0  0  0  0  0  0  0  0
   -6.4616    2.3029    0.0000 C   0  0  0  0  0  0  0  0  0  0  0  0
   -7.2314    1.8585    0.0000 C   0  0  0  0  0  0  0  0  0  0  0  0
   -7.2314    0.9696    0.0000 C   0  0  0  0  0  0  0  0  0  0  0  0
   -6.4616    0.5251    0.0000 C   0  0  0  0  0  0  0  0  0  0  0  0
   -1.8428    3.1918    0.0000 C   0  0  0  0  0  0  0  0  0  0  0  0
   -1.0730    3.6362    0.0000 C   0  0  0  0  0  0  0  0  0  0  0  0
   -0.3032    3.1918    0.0000 C   0  0  0  0  0  0  0  0  0  0  0  0
   -0.3032    2.3029    0.0000 C   0  0  0  0  0  0  0  0  0  0  0  0
    0.5554    2.0728    0.0000 O   0  0  0  0  0  0  0  0  0  0  0  0
    0.9999    1.3030    0.0000 C   0  0  2  0  0  0  0  0  0  0  0  0
    1.8811    1.4191    0.0000 C   0  0  0  0  0  0  0  0  0  0  0  0
    0.7698    0.4444    0.0000 C   0  0  1  0  0  0  0  0  0  0  0  0
    1.4750   -0.0967    0.0000 C   0  0  0  0  0  0  0  0  0  0  0  0
    0.0000    0.0000    0.0000 O   0  0  0  0  0  0  0  0  0  0  0  0
   -4.8586    4.0791    0.0000 O   0  0  0  0  0  0  0  0  0  0  0  0
   -6.1919    3.3093    0.0000 O   0  0  0  0  0  0  0  0  0  0  0  0
  1  2  1  0  0  0  0
  1 35  2  0  0  0  0
  1 36  1  0  0  0  0
  2  3  1  0  0  0  0
  3  4  1  0  0  0  0
  4  9  2  0  0  0  0
  4  5  1  0  0  0  0
  5  6  2  0  0  0  0
  6  7  1  0  0  0  0
  7  8  2  0  0  0  0
  8 34  1  0  0  0  0
  8  9  1  0  0  0  0
  9 10  1  0  0  0  0
 10 28  2  0  0  0  0
 10 11  1  0  0  0  0
 11 12  1  0  0  0  0
 11 25  2  0  0  0  0
 12 13  1  0  0  0  0
 12 19  1  0  0  0  0
 13 18  2  0  0  0  0
 13 14  1  0  0  0  0
 14 15  2  0  0  0  0
 15 16  1  0  0  0  0
 16 17  2  0  0  0  0
 17 18  1  0  0  0  0
 19 24  2  0  0  0  0
 19 20  1  0  0  0  0
 20 21  2  0  0  0  0
 21 22  1  0  0  0  0
 22 23  2  0  0  0  0
 23 24  1  0  0  0  0
 25 26  1  0  0  0  0
 26 27  2  0  0  0  0
 27 28  1  0  0  0  0
 28 29  1  0  0  0  0
 29 30  1  0  0  0  0
 30 31  1  6  0  0  0
 30 32  1  0  0  0  0
 32 33  1  1  0  0  0
 32 34  1  0  0  0  0
M  END
> <NMREDATA_VERSION>
1.1

> <NMREDATA_LEVEL>
0

> <NMREDATA_SOLVENT>
CDCl3

> <NMREDATA_FORMULA>
C30H27O5P

> <NMREDATA_SMILES>
OC(=O)COc1cccc2c1-c1c(cccc1P(c1ccccc1)c1ccccc1)O[C@@H]([C@H](O2)C)C

> <NMREDATA_ASSIGNMENT>
P12, -5.85, 12

> <NMREDATA_1D_31P>
Larmor=162
-5.85, L=P12

$$$$
