
 OpenBabel06112616432D

 20 23  0  0  1  0  0  0  0  0999 V2000
   -2.1628   -0.4493    0.0000 C   0  0  0  0  0  0  0  0  0  0  0  0
   -1.1735   -0.3398    0.0000 C   0  0  3  0  0  0  0  0  0  0  0  0
   -1.1738   -1.4281    0.0000 C   0  0  0  0  0  0  0  0  0  0  0  0
   -0.2901   -1.9385    0.0000 C   0  0  3  0  0  0  0  0  0  0  0  0
   -0.2903   -2.9339    0.0000 C   0  0  0  0  0  0  0  0  0  0  0  0
    0.5935   -1.4285    0.0000 O   0  0  0  0  0  0  0  0  0  0  0  0
    0.5938   -0.4090    0.0000 C   0  0  3  0  0  0  0  0  0  0  0  0
    1.5578   -0.6570    0.0000 C   0  0  0  0  0  0  0  0  0  0  0  0
    0.0310    0.3394    0.0000 C   0  0  0  0  0  0  0  0  0  0  0  0
   -0.8003    0.0674    0.0000 C   0  0  3  0  0  0  0  0  0  0  0  0
   -0.7716    1.0623    0.0000 C   0  0  0  0  0  0  0  0  0  0  0  0
   -1.7625    0.3398    0.0000 O   0  0  0  0  0  0  0  0  0  0  0  0
   -0.8006   -1.0549    0.0000 P   0  0  3  0  0  0  0  0  0  0  0  0
   -1.7863   -1.3190    0.0000 C   0  0  0  0  0  0  0  0  0  0  0  0
   -1.7863   -2.3395    0.0000 C   0  0  0  0  0  0  0  0  0  0  0  0
   -2.6701   -2.8498    0.0000 C   0  0  0  0  0  0  0  0  0  0  0  0
   -3.5539   -2.3395    0.0000 C   0  0  0  0  0  0  0  0  0  0  0  0
   -3.5539   -1.3190    0.0000 C   0  0  0  0  0  0  0  0  0  0  0  0
   -2.6701   -0.8088    0.0000 C   0  0  0  0  0  0  0  0  0  0  0  0
    0.0000    0.0000    0.0000 O   0  0  0  0  0  0  0  0  0  0  0  0
  1  2  1  0  0  0  0
  2 12  1  0  0  0  0
  2 20  1  0  0  0  0
  2  3  1  0  0  0  0
  3  4  1  0  0  0  0
  4 13  1  0  0  0  0
  4  5  1  0  0  0  0
  4  6  1  0  0  0  0
  6  7  1  0  0  0  0
  7  8  1  0  0  0  0
  7  9  1  0  0  0  0
  7 20  1  0  0  0  0
  9 10  1  0  0  0  0
 10 11  1  0  0  0  0
 10 12  1  0  0  0  0
 10 13  1  0  0  0  0
 13 14  1  0  0  0  0
 14 19  2  0  0  0  0
 14 15  1  0  0  0  0
 15 16  2  0  0  0  0
 16 17  1  0  0  0  0
 17 18  2  0  0  0  0
 18 19  1  0  0  0  0
M  END
> <NMREDATA_VERSION>
1.1

> <NMREDATA_LEVEL>
0

> <NMREDATA_SOLVENT>
CDCl3

> <NMREDATA_FORMULA>
C16H21O3P

> <NMREDATA_SMILES>
CC12CC3(C)OC(P2c2ccccc2)(CC(O1)(O3)C)C

> <NMREDATA_ASSIGNMENT>
P13, -24.17, 13

> <NMREDATA_1D_31P>
Larmor=162
-24.17, L=P13

$$$$
