
 OpenBabel06112616452D

 42 45  0  0  1  0  0  0  0  0999 V2000
    2.9835   -6.7589    0.0000 N   0  0  0  0  0  0  0  0  0  0  0  0
    2.1495   -7.2404    0.0000 C   0  0  0  0  0  0  0  0  0  0  0  0
    1.3155   -7.7219    0.0000 C   0  0  0  0  0  0  0  0  0  0  0  0
    0.4815   -7.2404    0.0000 C   0  0  0  0  0  0  0  0  0  0  0  0
    0.4815   -6.2774    0.0000 N   0  3  0  0  0  0  0  0  0  0  0  0
    0.4815   -4.2119    0.0000 O   0  5  0  0  0  0  0  0  0  0  0  0
    1.4599   -4.2119    0.0000 P   0  0  3  0  0  0  0  0  0  0  0  0
    1.4599   -5.1903    0.0000 O   0  0  0  0  0  0  0  0  0  0  0  0
    2.4384   -4.2119    0.0000 O   0  0  0  0  0  0  0  0  0  0  0  0
    1.4599   -3.2334    0.0000 O   0  0  0  0  0  0  0  0  0  0  0  0
    2.3073   -2.7442    0.0000 C   0  0  0  0  0  0  0  0  0  0  0  0
    2.3073   -1.7658    0.0000 C   0  0  0  0  0  0  0  0  0  0  0  0
    3.1546   -1.2766    0.0000 C   0  0  0  0  0  0  0  0  0  0  0  0
    4.0020   -0.7874    0.0000 C   0  0  0  0  0  0  0  0  0  0  0  0
    4.5771   -1.5789    0.0000 C   0  0  3  0  0  0  0  0  0  0  0  0
    4.1743   -2.4706    0.0000 C   0  0  0  0  0  0  0  0  0  0  0  0
    4.7440   -3.2649    0.0000 C   0  0  0  0  0  0  0  0  0  0  0  0
    5.7272   -3.1720    0.0000 C   0  0  0  0  0  0  0  0  0  0  0  0
    6.3021   -3.9687    0.0000 C   0  0  0  0  0  0  0  0  0  0  0  0
    6.2268   -4.7600    0.0000 C   0  0  0  0  0  0  0  0  0  0  0  0
    6.7985   -5.3124    0.0000 C   0  0  0  0  0  0  0  0  0  0  0  0
    7.5867   -5.2097    0.0000 C   0  0  0  0  0  0  0  0  0  0  0  0
    7.9980   -4.5295    0.0000 C   0  0  0  0  0  0  0  0  0  0  0  0
    7.2744   -3.8709    0.0000 C   0  0  0  0  0  0  0  0  0  0  0  0
    7.6771   -2.9792    0.0000 C   0  0  0  0  0  0  0  0  0  0  0  0
    7.1125   -2.1747    0.0000 C   0  0  0  0  0  0  0  0  0  0  0  0
    7.5176   -1.2777    0.0000 C   0  0  0  0  0  0  0  0  0  0  0  0
    6.9296   -0.4815    0.0000 C   0  0  0  0  0  0  0  0  0  0  0  0
    5.9595   -0.5739    0.0000 C   0  0  0  0  0  0  0  0  0  0  0  0
    5.5543   -1.4709    0.0000 C   0  0  0  0  0  0  0  0  0  0  0  0
    6.1299   -2.2803    0.0000 C   0  0  0  0  0  0  0  0  0  0  0  0
    8.6496   -3.0867    0.0000 C   0  0  0  0  0  0  0  0  0  0  0  0
    8.8479   -4.0448    0.0000 C   0  0  0  0  0  0  0  0  0  0  0  0
    9.7435   -4.4494    0.0000 C   0  0  0  0  0  0  0  0  0  0  0  0
   10.6391   -4.8539    0.0000 C   0  0  0  0  0  0  0  0  0  0  0  0
   11.5346   -5.2584    0.0000 C   0  0  0  0  0  0  0  0  0  0  0  0
   12.3327   -4.6851    0.0000 C   0  0  0  0  0  0  0  0  0  0  0  0
   13.2283   -5.0896    0.0000 O   0  0  0  0  0  0  0  0  0  0  0  0
   14.0264   -4.5163    0.0000 P   0  0  3  0  0  0  0  0  0  0  0  0
   14.5997   -5.3144    0.0000 O   0  0  0  0  0  0  0  0  0  0  0  0
   14.8245   -3.9430    0.0000 O   0  5  0  0  0  0  0  0  0  0  0  0
   13.4531   -3.7182    0.0000 O   0  0  0  0  0  0  0  0  0  0  0  0
  1  2  3  0  0  0  0
  2  3  1  0  0  0  0
  3  4  1  0  0  0  0
  4  5  1  0  0  0  0
  6  7  1  0  0  0  0
  7  8  2  0  0  0  0
  7  9  1  0  0  0  0
  7 10  1  0  0  0  0
 10 11  1  0  0  0  0
 11 12  1  0  0  0  0
 12 13  1  0  0  0  0
 13 14  3  0  0  0  0
 14 15  1  0  0  0  0
 15 30  1  0  0  0  0
 15 16  1  0  0  0  0
 16 17  2  0  0  0  0
 17 18  1  0  0  0  0
 18 31  2  0  0  0  0
 18 19  1  0  0  0  0
 19 24  2  0  0  0  0
 19 20  1  0  0  0  0
 20 21  2  0  0  0  0
 21 22  1  0  0  0  0
 22 23  2  0  0  0  0
 23 33  1  0  0  0  0
 23 24  1  0  0  0  0
 24 25  1  0  0  0  0
 25 26  2  0  0  0  0
 25 32  1  0  0  0  0
 26 31  1  0  0  0  0
 26 27  1  0  0  0  0
 27 28  2  0  0  0  0
 28 29  1  0  0  0  0
 29 30  2  0  0  0  0
 30 31  1  0  0  0  0
 32 33  2  0  0  0  0
 33 34  1  0  0  0  0
 34 35  3  0  0  0  0
 35 36  1  0  0  0  0
 36 37  1  0  0  0  0
 37 38  1  0  0  0  0
 38 39  1  0  0  0  0
 39 40  2  0  0  0  0
 39 41  1  0  0  0  0
 39 42  1  0  0  0  0
M  END
> <NMREDATA_VERSION>
1.1

> <NMREDATA_LEVEL>
0

> <NMREDATA_SOLVENT>
CD3OD

> <NMREDATA_FORMULA>
C30H27N2O8P2

> <NMREDATA_SMILES>
C(C#N)C[NH3+].[O-]P(=O)(OCCC#CC1C=Cc2c3c1cccc3c1c3c2cccc3C(=C1)C#CCCOP(=O)(O)[O-])O

> <NMREDATA_ASSIGNMENT>
P7, -0.33, 7
P39, -0.33, 39

> <NMREDATA_1D_31P>
Larmor=162
-0.33, L=P7
-0.33, L=P39

$$$$
