
 OpenBabel06112616452D

 59 61  0  0  1  0  0  0  0  0999 V2000
    1.4839   -4.3037    0.0000 C    0  0  0  0  0  0  0  0  0  0  0  0
    1.4839   -5.2875    0.0000 F    0  0  0  0  0  0  0  0  0  0  0  0
    0.9919   -3.4516    0.0000 F    0  0  0  0  0  0  0  0  0  0  0  0
    0.5000   -4.3037    0.0000 F    0  0  0  0  0  0  0  0  0  0  0  0
    2.3359   -3.8117    0.0000 C    0  0  0  0  0  0  0  0  0  0  0  0
    3.1880   -4.3037    0.0000 C    0  0  0  0  0  0  0  0  0  0  0  0
    4.0400   -3.8117    0.0000 C    0  0  0  0  0  0  0  0  0  0  0  0
    5.7442   -4.7956    0.0000 C    0  0  0  0  0  0  0  0  0  0  0  0
    5.7442   -5.7795    0.0000 P    0  3  0  0  0  0  0  0  0  0  0  0
    6.7280   -5.7795    0.0000 C    0  0  0  0  0  0  0  0  0  0  0  0
    7.2200   -4.9274    0.0000 C    0  0  1  0  0  0  0  0  0  0  0  0
    8.2038   -4.9274    0.0000 N    0  0  0  0  0  0  0  0  0  0  0  0
    8.6958   -4.0754    0.0000 C    0  0  0  0  0  0  0  0  0  0  0  0
    9.6796   -4.0754    0.0000 C    0  0  2  0  0  0  0  0  0  0  0  0
   10.1716   -4.9274    0.0000 C    0  0  0  0  0  0  0  0  0  0  0  0
   11.1554   -4.9274    0.0000 C    0  0  0  0  0  0  0  0  0  0  0  0
   11.6474   -5.7795    0.0000 C    0  0  0  0  0  0  0  0  0  0  0  0
   11.1554   -6.6315    0.0000 C    0  0  0  0  0  0  0  0  0  0  0  0
   10.3034   -7.1235    0.0000 F    0  0  0  0  0  0  0  0  0  0  0  0
   10.3034   -6.1396    0.0000 F    0  0  0  0  0  0  0  0  0  0  0  0
   11.6474   -7.4836    0.0000 F    0  0  0  0  0  0  0  0  0  0  0  0
   12.6313   -5.7795    0.0000 C    0  0  0  0  0  0  0  0  0  0  0  0
   13.1232   -4.9274    0.0000 C    0  0  0  0  0  0  0  0  0  0  0  0
   12.6313   -4.0754    0.0000 C    0  0  0  0  0  0  0  0  0  0  0  0
   11.6474   -4.0754    0.0000 C    0  0  0  0  0  0  0  0  0  0  0  0
   10.1716   -3.2233    0.0000 N    0  0  0  0  0  0  0  0  0  0  0  0
    9.6796   -2.3712    0.0000 C    0  0  0  0  0  0  0  0  0  0  0  0
   10.1716   -1.5192    0.0000 O    0  0  0  0  0  0  0  0  0  0  0  0
    8.6958   -2.3712    0.0000 O    0  0  0  0  0  0  0  0  0  0  0  0
    8.2038   -1.5192    0.0000 C    0  0  0  0  0  0  0  0  0  0  0  0
    7.3518   -1.0273    0.0000 C    0  0  0  0  0  0  0  0  0  0  0  0
    7.3518   -2.0111    0.0000 C    0  0  0  0  0  0  0  0  0  0  0  0
    8.6958   -0.6671    0.0000 C    0  0  0  0  0  0  0  0  0  0  0  0
    8.2038   -3.2233    0.0000 O    0  0  0  0  0  0  0  0  0  0  0  0
    8.6958   -5.7795    0.0000 C    0  0  0  0  0  0  0  0  0  0  0  0
    6.7280   -4.0754    0.0000 C    0  0  0  0  0  0  0  0  0  0  0  0
    6.7280   -3.0915    0.0000 C    0  0  0  0  0  0  0  0  0  0  0  0
    7.5801   -3.5834    0.0000 C    0  0  0  0  0  0  0  0  0  0  0  0
    5.7442   -4.0754    0.0000 C    0  0  0  0  0  0  0  0  0  0  0  0
    5.7442   -6.7633    0.0000 C    0  0  0  0  0  0  0  0  0  0  0  0
    4.8921   -7.2553    0.0000 C    0  0  0  0  0  0  0  0  0  0  0  0
    4.8921   -8.2392    0.0000 C    0  0  0  0  0  0  0  0  0  0  0  0
    5.7442   -8.7311    0.0000 C    0  0  0  0  0  0  0  0  0  0  0  0
    6.5962   -8.2392    0.0000 C    0  0  0  0  0  0  0  0  0  0  0  0
    6.5962   -7.2553    0.0000 C    0  0  0  0  0  0  0  0  0  0  0  0
    4.7603   -5.7795    0.0000 C    0  0  0  0  0  0  0  0  0  0  0  0
    4.2684   -4.9274    0.0000 C    0  0  0  0  0  0  0  0  0  0  0  0
    3.2845   -4.9274    0.0000 C    0  0  0  0  0  0  0  0  0  0  0  0
    2.7925   -5.7795    0.0000 C    0  0  0  0  0  0  0  0  0  0  0  0
    3.2845   -6.6315    0.0000 C    0  0  0  0  0  0  0  0  0  0  0  0
    4.2684   -6.6315    0.0000 C    0  0  0  0  0  0  0  0  0  0  0  0
    4.0400   -2.8279    0.0000 C    0  0  0  0  0  0  0  0  0  0  0  0
    3.1880   -2.3359    0.0000 C    0  0  0  0  0  0  0  0  0  0  0  0
    3.1880   -1.3521    0.0000 C    0  0  0  0  0  0  0  0  0  0  0  0
    3.6799   -0.5000    0.0000 F    0  0  0  0  0  0  0  0  0  0  0  0
    4.1719   -1.3521    0.0000 F    0  0  0  0  0  0  0  0  0  0  0  0
    2.3359   -0.8601    0.0000 F    0  0  0  0  0  0  0  0  0  0  0  0
    2.3359   -2.8279    0.0000 C    0  0  0  0  0  0  0  0  0  0  0  0
   14.1232   -0.5000    0.0000 Br   0  5  0  0  0  0  0  0  0  0  0  0
  1  2  1  0  0  0  0
  1  3  1  0  0  0  0
  1  4  1  0  0  0  0
  1  5  1  0  0  0  0
  5 58  2  0  0  0  0
  5  6  1  0  0  0  0
  6  7  2  0  0  0  0
  7  8  1  0  0  0  0
  7 52  1  0  0  0  0
  8  9  1  0  0  0  0
  9 10  1  0  0  0  0
  9 40  1  0  0  0  0
  9 46  1  0  0  0  0
 11 10  1  6  0  0  0
 11 12  1  0  0  0  0
 11 36  1  0  0  0  0
 12 13  1  0  0  0  0
 12 35  1  0  0  0  0
 13 14  1  0  0  0  0
 13 34  2  0  0  0  0
 14 15  1  1  0  0  0
 14 26  1  0  0  0  0
 15 16  1  0  0  0  0
 16 25  2  0  0  0  0
 16 17  1  0  0  0  0
 17 18  1  0  0  0  0
 17 22  2  0  0  0  0
 18 19  1  0  0  0  0
 18 20  1  0  0  0  0
 18 21  1  0  0  0  0
 22 23  1  0  0  0  0
 23 24  2  0  0  0  0
 24 25  1  0  0  0  0
 26 27  1  0  0  0  0
 27 28  2  0  0  0  0
 27 29  1  0  0  0  0
 29 30  1  0  0  0  0
 30 31  1  0  0  0  0
 30 32  1  0  0  0  0
 30 33  1  0  0  0  0
 36 37  1  0  0  0  0
 36 38  1  0  0  0  0
 36 39  1  0  0  0  0
 40 45  2  0  0  0  0
 40 41  1  0  0  0  0
 41 42  2  0  0  0  0
 42 43  1  0  0  0  0
 43 44  2  0  0  0  0
 44 45  1  0  0  0  0
 46 51  2  0  0  0  0
 46 47  1  0  0  0  0
 47 48  2  0  0  0  0
 48 49  1  0  0  0  0
 49 50  2  0  0  0  0
 50 51  1  0  0  0  0
 52 53  2  0  0  0  0
 53 54  1  0  0  0  0
 53 58  1  0  0  0  0
 54 55  1  0  0  0  0
 54 56  1  0  0  0  0
 54 57  1  0  0  0  0
M  END
> <NMREDATA_VERSION>
1.1

> <NMREDATA_LEVEL>
0

> <NMREDATA_SOLVENT>
CDCl3

> <NMREDATA_FORMULA>
C43H47BrF9N2O3P

> <NMREDATA_SMILES>
O=C(OC(C)(C)C)N[C@H](C(=O)N([C@@H](C(C)(C)C)CP(c1ccccc1)(c1ccccc1)Cc1cc(cc(c1)C(F)(F)F)C(F)(F)F)C)Cc1ccccc1C(F)(F)F.Br

> <NMREDATA_ASSIGNMENT>
P9, 31.62, 9

> <NMREDATA_1D_31P>
Larmor=162
31.62, L=P9

$$$$
