
 OpenBabel06112616432D

 40 45  0  0  0  0  0  0  0  0999 V2000
   -0.8119   -1.4063    0.0000 O   0  0  0  0  0  0  0  0  0  0  0  0
   -0.8119   -0.4688    0.0000 C   0  0  0  0  0  0  0  0  0  0  0  0
   -1.6238    0.0000    0.0000 C   0  0  0  0  0  0  0  0  0  0  0  0
   -1.6238    0.9375    0.0000 C   0  0  0  0  0  0  0  0  0  0  0  0
   -0.8119    1.4062    0.0000 C   0  0  0  0  0  0  0  0  0  0  0  0
   -0.8119    2.3438    0.0000 C   0  0  0  0  0  0  0  0  0  0  0  0
   -1.6238    2.8125    0.0000 C   0  0  0  0  0  0  0  0  0  0  0  0
   -1.6238    3.7500    0.0000 C   0  0  0  0  0  0  0  0  0  0  0  0
   -0.8119    4.2188    0.0000 C   0  0  0  0  0  0  0  0  0  0  0  0
   -0.8119    5.1562    0.0000 C   0  0  0  0  0  0  0  0  0  0  0  0
    0.0000    5.6250    0.0000 C   0  0  0  0  0  0  0  0  0  0  0  0
    0.8119    5.1563    0.0000 C   0  0  0  0  0  0  0  0  0  0  0  0
    0.8119    4.2188    0.0000 C   0  0  0  0  0  0  0  0  0  0  0  0
    0.0000    3.7500    0.0000 C   0  0  0  0  0  0  0  0  0  0  0  0
    0.0000    2.8125    0.0000 C   0  0  0  0  0  0  0  0  0  0  0  0
    3.2476    0.9375    0.0000 C   0  0  0  0  0  0  0  0  0  0  0  0
    3.2476    0.0000    0.0000 C   0  0  0  0  0  0  0  0  0  0  0  0
    4.0595   -0.4687    0.0000 C   0  0  0  0  0  0  0  0  0  0  0  0
    4.8714    0.0000    0.0000 C   0  0  0  0  0  0  0  0  0  0  0  0
    4.8714    0.9375    0.0000 C   0  0  0  0  0  0  0  0  0  0  0  0
    4.0595    1.4063    0.0000 C   0  0  0  0  0  0  0  0  0  0  0  0
    4.0595    2.3438    0.0000 P   0  0  0  0  0  0  0  0  0  0  0  0
    3.2476    2.8125    0.0000 C   0  0  0  0  0  0  0  0  0  0  0  0
    3.2476    3.7500    0.0000 C   0  0  0  0  0  0  0  0  0  0  0  0
    2.4357    4.2188    0.0000 C   0  0  0  0  0  0  0  0  0  0  0  0
    1.6238    3.7500    0.0000 C   0  0  0  0  0  0  0  0  0  0  0  0
    1.6238    2.8125    0.0000 C   0  0  0  0  0  0  0  0  0  0  0  0
    2.4357    2.3438    0.0000 C   0  0  0  0  0  0  0  0  0  0  0  0
    4.8714    2.8125    0.0000 C   0  0  0  0  0  0  0  0  0  0  0  0
    5.6833    2.3438    0.0000 C   0  0  0  0  0  0  0  0  0  0  0  0
    6.4952    2.8125    0.0000 C   0  0  0  0  0  0  0  0  0  0  0  0
    6.4952    3.7500    0.0000 C   0  0  0  0  0  0  0  0  0  0  0  0
    5.6833    4.2188    0.0000 C   0  0  0  0  0  0  0  0  0  0  0  0
    4.8714    3.7500    0.0000 C   0  0  0  0  0  0  0  0  0  0  0  0
    0.0000    0.9375    0.0000 C   0  0  0  0  0  0  0  0  0  0  0  0
    0.0000    0.0000    0.0000 C   0  0  0  0  0  0  0  0  0  0  0  0
   -1.6238   -1.8750    0.0000 C   0  0  0  0  0  0  0  0  0  0  0  0
   -2.0925   -2.6869    0.0000 F   0  0  0  0  0  0  0  0  0  0  0  0
   -1.1550   -2.6869    0.0000 F   0  0  0  0  0  0  0  0  0  0  0  0
   -2.4357   -1.4063    0.0000 F   0  0  0  0  0  0  0  0  0  0  0  0
  1  2  1  0  0  0  0
  1 37  1  0  0  0  0
  2 36  2  0  0  0  0
  2  3  1  0  0  0  0
  3  4  2  0  0  0  0
  4  5  1  0  0  0  0
  5  6  1  0  0  0  0
  5 35  2  0  0  0  0
  6 15  2  0  0  0  0
  6  7  1  0  0  0  0
  7  8  2  0  0  0  0
  8  9  1  0  0  0  0
  9 14  2  0  0  0  0
  9 10  1  0  0  0  0
 10 11  2  0  0  0  0
 11 12  1  0  0  0  0
 12 13  2  0  0  0  0
 13 14  1  0  0  0  0
 14 15  1  0  0  0  0
 15 16  1  0  0  0  0
 16 21  2  0  0  0  0
 16 17  1  0  0  0  0
 17 18  2  0  0  0  0
 18 19  1  0  0  0  0
 19 20  2  0  0  0  0
 20 21  1  0  0  0  0
 21 22  1  0  0  0  0
 22 23  1  0  0  0  0
 22 29  1  0  0  0  0
 23 28  2  0  0  0  0
 23 24  1  0  0  0  0
 24 25  2  0  0  0  0
 25 26  1  0  0  0  0
 26 27  2  0  0  0  0
 27 28  1  0  0  0  0
 29 34  2  0  0  0  0
 29 30  1  0  0  0  0
 30 31  2  0  0  0  0
 31 32  1  0  0  0  0
 32 33  2  0  0  0  0
 33 34  1  0  0  0  0
 35 36  1  0  0  0  0
 37 38  1  0  0  0  0
 37 39  1  0  0  0  0
 37 40  1  0  0  0  0
M  END
> <NMREDATA_VERSION>
1.1

> <NMREDATA_LEVEL>
0

> <NMREDATA_SOLVENT>
CDCl3

> <NMREDATA_FORMULA>
C35H24F3OP

> <NMREDATA_SMILES>
FC(Oc1ccc(cc1)c1ccc2c(c1c1ccccc1P(c1ccccc1)c1ccccc1)cccc2)(F)F

> <NMREDATA_ASSIGNMENT>
P22, -15.23, 22

> <NMREDATA_1D_31P>
Larmor=202
-15.23, L=P22

$$$$
