
 OpenBabel06112616452D

 31 35  0  0  1  0  0  0  0  0999 V2000
   -2.3957    2.9167    0.0000 C   0  0  0  0  0  0  0  0  0  0  0  0
   -1.5537    2.4306    0.0000 C   0  0  0  0  0  0  0  0  0  0  0  0
   -0.7117    2.9167    0.0000 C   0  0  0  0  0  0  0  0  0  0  0  0
    0.1303    2.4306    0.0000 C   0  0  0  0  0  0  0  0  0  0  0  0
    0.1303    1.4583    0.0000 C   0  0  0  0  0  0  0  0  0  0  0  0
    0.9722    0.9722    0.0000 C   0  0  3  0  0  0  0  0  0  0  0  0
    2.6562    1.9444    0.0000 C   0  0  0  0  0  0  0  0  0  0  0  0
    2.7578    2.9113    0.0000 C   0  0  0  0  0  0  0  0  0  0  0  0
    3.7088    3.1135    0.0000 C   0  0  0  0  0  0  0  0  0  0  0  0
    4.1949    3.9554    0.0000 C   0  0  0  0  0  0  0  0  0  0  0  0
    5.1671    3.9554    0.0000 C   0  0  0  0  0  0  0  0  0  0  0  0
    5.6532    3.1135    0.0000 C   0  0  0  0  0  0  0  0  0  0  0  0
    5.1671    2.2715    0.0000 C   0  0  0  0  0  0  0  0  0  0  0  0
    4.1949    2.2715    0.0000 C   0  0  0  0  0  0  0  0  0  0  0  0
    3.5443    1.5490    0.0000 O   0  0  0  0  0  0  0  0  0  0  0  0
    0.9722    0.0000    0.0000 P   0  0  0  0  0  0  0  0  0  0  0  0
    1.9444    0.0000    0.0000 C   0  0  0  0  0  0  0  0  0  0  0  0
    2.4306   -0.8420    0.0000 C   0  0  0  0  0  0  0  0  0  0  0  0
    3.4028   -0.8420    0.0000 C   0  0  0  0  0  0  0  0  0  0  0  0
    3.8889    0.0000    0.0000 C   0  0  0  0  0  0  0  0  0  0  0  0
    3.4028    0.8420    0.0000 C   0  0  0  0  0  0  0  0  0  0  0  0
    2.4306    0.8420    0.0000 C   0  0  0  0  0  0  0  0  0  0  0  0
    0.9722   -0.9722    0.0000 C   0  0  0  0  0  0  0  0  0  0  0  0
    0.1303   -1.4583    0.0000 C   0  0  0  0  0  0  0  0  0  0  0  0
    0.1303   -2.4306    0.0000 C   0  0  0  0  0  0  0  0  0  0  0  0
    0.9722   -2.9167    0.0000 C   0  0  0  0  0  0  0  0  0  0  0  0
    1.8142   -2.4306    0.0000 C   0  0  0  0  0  0  0  0  0  0  0  0
    1.8142   -1.4583    0.0000 C   0  0  0  0  0  0  0  0  0  0  0  0
    0.0000    0.0000    0.0000 O   0  0  0  0  0  0  0  0  0  0  0  0
   -0.7117    0.9722    0.0000 C   0  0  0  0  0  0  0  0  0  0  0  0
   -1.5537    1.4583    0.0000 C   0  0  0  0  0  0  0  0  0  0  0  0
  1  2  1  0  0  0  0
  2 31  2  0  0  0  0
  2  3  1  0  0  0  0
  3  4  2  0  0  0  0
  4  5  1  0  0  0  0
  5  6  1  0  0  0  0
  5 30  2  0  0  0  0
  6  7  1  0  0  0  0
  6 16  1  0  0  0  0
  7 15  1  0  0  0  0
  7  8  2  0  0  0  0
  8  9  1  0  0  0  0
  9 14  2  0  0  0  0
  9 10  1  0  0  0  0
 10 11  2  0  0  0  0
 11 12  1  0  0  0  0
 12 13  2  0  0  0  0
 13 14  1  0  0  0  0
 14 15  1  0  0  0  0
 16 17  1  0  0  0  0
 16 23  1  0  0  0  0
 16 29  2  0  0  0  0
 17 22  2  0  0  0  0
 17 18  1  0  0  0  0
 18 19  2  0  0  0  0
 19 20  1  0  0  0  0
 20 21  2  0  0  0  0
 21 22  1  0  0  0  0
 23 28  2  0  0  0  0
 23 24  1  0  0  0  0
 24 25  2  0  0  0  0
 25 26  1  0  0  0  0
 26 27  2  0  0  0  0
 27 28  1  0  0  0  0
 30 31  1  0  0  0  0
M  END
> <NMREDATA_VERSION>
1.1

> <NMREDATA_LEVEL>
0

> <NMREDATA_SOLVENT>
CDCl3

> <NMREDATA_FORMULA>
C28H23O2P

> <NMREDATA_SMILES>
Cc1ccc(cc1)C(P(=O)(c1ccccc1)c1ccccc1)c1cc2c(o1)cccc2

> <NMREDATA_ASSIGNMENT>
P16, 29.50, 16

> <NMREDATA_1D_31P>
Larmor=162
29.50, L=P16

$$$$
