
 OpenBabel06112616492D

 31 35  0  0  1  0  0  0  0  0999 V2000
    1.9444   -0.9722    0.0000 O   0  0  0  0  0  0  0  0  0  0  0  0
    1.9444    0.0000    0.0000 P   0  0  0  0  0  0  0  0  0  0  0  0
    2.9167    0.0000    0.0000 C   0  0  0  0  0  0  0  0  0  0  0  0
    3.4028    0.8420    0.0000 C   0  0  0  0  0  0  0  0  0  0  0  0
    4.3750    0.8420    0.0000 C   0  0  0  0  0  0  0  0  0  0  0  0
    4.8611    0.0000    0.0000 C   0  0  0  0  0  0  0  0  0  0  0  0
    4.3750   -0.8420    0.0000 C   0  0  0  0  0  0  0  0  0  0  0  0
    3.4028   -0.8420    0.0000 C   0  0  0  0  0  0  0  0  0  0  0  0
    1.9444    0.9722    0.0000 C   0  0  0  0  0  0  0  0  0  0  0  0
    1.1025    1.4583    0.0000 C   0  0  0  0  0  0  0  0  0  0  0  0
    1.1025    2.4306    0.0000 C   0  0  0  0  0  0  0  0  0  0  0  0
    1.9444    2.9167    0.0000 C   0  0  0  0  0  0  0  0  0  0  0  0
    2.7864    2.4306    0.0000 C   0  0  0  0  0  0  0  0  0  0  0  0
    2.7864    1.4583    0.0000 C   0  0  0  0  0  0  0  0  0  0  0  0
    0.0000    0.0000    0.0000 C   0  0  3  0  0  0  0  0  0  0  0  0
   -0.4861   -0.8420    0.0000 C   0  0  0  0  0  0  0  0  0  0  0  0
    0.0000   -1.6839    0.0000 C   0  0  0  0  0  0  0  0  0  0  0  0
   -0.4861   -2.5259    0.0000 C   0  0  0  0  0  0  0  0  0  0  0  0
   -1.4583   -2.5259    0.0000 C   0  0  0  0  0  0  0  0  0  0  0  0
   -1.9444   -1.6839    0.0000 C   0  0  0  0  0  0  0  0  0  0  0  0
   -1.4583   -0.8420    0.0000 C   0  0  0  0  0  0  0  0  0  0  0  0
   -1.9444    0.0000    0.0000 C   0  0  0  0  0  0  0  0  0  0  0  0
   -1.4583    0.8420    0.0000 C   0  0  0  0  0  0  0  0  0  0  0  0
   -0.4861    0.8420    0.0000 N   0  0  0  0  0  0  0  0  0  0  0  0
    0.0000    1.6839    0.0000 C   0  0  0  0  0  0  0  0  0  0  0  0
   -0.4861    2.5259    0.0000 C   0  0  0  0  0  0  0  0  0  0  0  0
   -1.4583    2.5259    0.0000 C   0  0  0  0  0  0  0  0  0  0  0  0
   -1.9444    3.3679    0.0000 C   0  0  0  0  0  0  0  0  0  0  0  0
   -1.4583    4.2098    0.0000 C   0  0  0  0  0  0  0  0  0  0  0  0
   -0.4861    4.2098    0.0000 C   0  0  0  0  0  0  0  0  0  0  0  0
    0.0000    3.3679    0.0000 C   0  0  0  0  0  0  0  0  0  0  0  0
  1  2  2  0  0  0  0
  2  3  1  0  0  0  0
  2  9  1  0  0  0  0
  2 15  1  0  0  0  0
  3  8  2  0  0  0  0
  3  4  1  0  0  0  0
  4  5  2  0  0  0  0
  5  6  1  0  0  0  0
  6  7  2  0  0  0  0
  7  8  1  0  0  0  0
  9 14  2  0  0  0  0
  9 10  1  0  0  0  0
 10 11  2  0  0  0  0
 11 12  1  0  0  0  0
 12 13  2  0  0  0  0
 13 14  1  0  0  0  0
 15 24  1  0  0  0  0
 15 16  1  0  0  0  0
 16 21  2  0  0  0  0
 16 17  1  0  0  0  0
 17 18  2  0  0  0  0
 18 19  1  0  0  0  0
 19 20  2  0  0  0  0
 20 21  1  0  0  0  0
 21 22  1  0  0  0  0
 22 23  1  0  0  0  0
 23 24  1  0  0  0  0
 24 25  1  0  0  0  0
 25 26  1  0  0  0  0
 26 31  2  0  0  0  0
 26 27  1  0  0  0  0
 27 28  2  0  0  0  0
 28 29  1  0  0  0  0
 29 30  2  0  0  0  0
 30 31  1  0  0  0  0
M  END
> <NMREDATA_VERSION>
1.1

> <NMREDATA_LEVEL>
0

> <NMREDATA_SOLVENT>
CDCl3

> <NMREDATA_FORMULA>
C28H26NOP

> <NMREDATA_SMILES>
O=P(C1N(CCc2c1cccc2)Cc1ccccc1)(c1ccccc1)c1ccccc1

> <NMREDATA_ASSIGNMENT>
P2, 31.32, 2

> <NMREDATA_1D_31P>
Larmor=162
31.32, L=P2

$$$$
