
 OpenBabel06112616472D

 26 29  0  0  0  0  0  0  0  0999 V2000
    0.0000    1.0000    0.0000 C   0  0  0  0  0  0  0  0  0  0  0  0
   -0.8660    1.5000    0.0000 C   0  0  0  0  0  0  0  0  0  0  0  0
   -1.7321    1.0000    0.0000 C   0  0  0  0  0  0  0  0  0  0  0  0
   -2.5981    1.5000    0.0000 C   0  0  0  0  0  0  0  0  0  0  0  0
   -2.5981    2.5000    0.0000 C   0  0  0  0  0  0  0  0  0  0  0  0
   -3.4641    3.0000    0.0000 P   0  3  0  0  0  0  0  0  0  0  0  0
   -3.4641    4.0000    0.0000 B   0  5  0  0  0  0  0  0  0  0  0  0
   -4.3301    2.5000    0.0000 C   0  0  0  0  0  0  0  0  0  0  0  0
   -4.3301    1.5000    0.0000 C   0  0  0  0  0  0  0  0  0  0  0  0
   -5.1962    1.0000    0.0000 C   0  0  0  0  0  0  0  0  0  0  0  0
   -6.0622    1.5000    0.0000 C   0  0  0  0  0  0  0  0  0  0  0  0
   -6.9282    1.0000    0.0000 C   0  0  0  0  0  0  0  0  0  0  0  0
   -6.9282    0.0000    0.0000 C   0  0  0  0  0  0  0  0  0  0  0  0
   -7.7942   -0.5000    0.0000 C   0  0  0  0  0  0  0  0  0  0  0  0
   -8.6603    0.0000    0.0000 C   0  0  0  0  0  0  0  0  0  0  0  0
   -8.6603    1.0000    0.0000 C   0  0  0  0  0  0  0  0  0  0  0  0
   -7.7942    1.5000    0.0000 C   0  0  0  0  0  0  0  0  0  0  0  0
   -6.0622    2.5000    0.0000 C   0  0  0  0  0  0  0  0  0  0  0  0
   -5.1962    3.0000    0.0000 C   0  0  0  0  0  0  0  0  0  0  0  0
   -1.7321    3.0000    0.0000 C   0  0  0  0  0  0  0  0  0  0  0  0
   -0.8660    2.5000    0.0000 C   0  0  0  0  0  0  0  0  0  0  0  0
    0.8660    1.5000    0.0000 C   0  0  0  0  0  0  0  0  0  0  0  0
    1.7321    1.0000    0.0000 C   0  0  0  0  0  0  0  0  0  0  0  0
    1.7321    0.0000    0.0000 C   0  0  0  0  0  0  0  0  0  0  0  0
    0.8660   -0.5000    0.0000 C   0  0  0  0  0  0  0  0  0  0  0  0
    0.0000    0.0000    0.0000 C   0  0  0  0  0  0  0  0  0  0  0  0
  1 26  2  0  0  0  0
  1  2  1  0  0  0  0
  1 22  1  0  0  0  0
  2 21  2  0  0  0  0
  2  3  1  0  0  0  0
  3  4  2  0  0  0  0
  4  5  1  0  0  0  0
  5  6  1  0  0  0  0
  5 20  2  0  0  0  0
  6  7  1  0  0  0  0
  6  8  1  0  0  0  0
  8 19  2  0  0  0  0
  8  9  1  0  0  0  0
  9 10  2  0  0  0  0
 10 11  1  0  0  0  0
 11 12  1  0  0  0  0
 11 18  2  0  0  0  0
 12 17  2  0  0  0  0
 12 13  1  0  0  0  0
 13 14  2  0  0  0  0
 14 15  1  0  0  0  0
 15 16  2  0  0  0  0
 16 17  1  0  0  0  0
 18 19  1  0  0  0  0
 20 21  1  0  0  0  0
 22 23  2  0  0  0  0
 23 24  1  0  0  0  0
 24 25  2  0  0  0  0
 25 26  1  0  0  0  0
M  END
> <NMREDATA_VERSION>
1.1

> <NMREDATA_LEVEL>
0

> <NMREDATA_SOLVENT>
CDCl3

> <NMREDATA_FORMULA>
C24H19BP

> <NMREDATA_SMILES>
[BH3-][PH+](c1ccc(cc1)c1ccccc1)c1ccc(cc1)c1ccccc1

> <NMREDATA_ASSIGNMENT>
P6, -0.32, 6

> <NMREDATA_1D_31P>
Larmor=162
-0.32, L=P6

$$$$
