
 OpenBabel06112616442D

 41 46  0  0  1  0  0  0  0  0999 V2000
    0.1311   -1.4681    0.0000 C    0  0  0  0  0  0  0  0  0  0  0  0
    0.9787   -0.9787    0.0000 C    0  0  0  0  0  0  0  0  0  0  0  0
    1.8263   -1.4681    0.0000 C    0  0  3  0  0  0  0  0  0  0  0  0
    2.7717   -1.7214    0.0000 C    0  0  0  0  0  0  0  0  0  0  0  0
    3.4638   -1.0293    0.0000 Br   0  0  0  0  0  0  0  0  0  0  0  0
    3.0250   -2.6668    0.0000 C    0  0  0  0  0  0  0  0  0  0  0  0
    3.9704   -2.9201    0.0000 C    0  0  0  0  0  0  0  0  0  0  0  0
    4.6624   -2.2280    0.0000 C    0  0  0  0  0  0  0  0  0  0  0  0
    5.6078   -2.4813    0.0000 C    0  0  0  0  0  0  0  0  0  0  0  0
    5.8611   -3.4267    0.0000 C    0  0  0  0  0  0  0  0  0  0  0  0
    6.8065   -3.6800    0.0000 C    0  0  0  0  0  0  0  0  0  0  0  0
    5.1691   -4.1188    0.0000 C    0  0  0  0  0  0  0  0  0  0  0  0
    4.2237   -3.8655    0.0000 C    0  0  0  0  0  0  0  0  0  0  0  0
    2.3329   -3.3588    0.0000 C    0  0  0  0  0  0  0  0  0  0  0  0
    1.3876   -3.1055    0.0000 C    0  0  0  0  0  0  0  0  0  0  0  0
    0.6955   -3.7976    0.0000 C    0  0  0  0  0  0  0  0  0  0  0  0
    0.9488   -4.7430    0.0000 C    0  0  0  0  0  0  0  0  0  0  0  0
    1.8942   -4.9963    0.0000 C    0  0  0  0  0  0  0  0  0  0  0  0
    2.5863   -4.3042    0.0000 C    0  0  0  0  0  0  0  0  0  0  0  0
    1.1343   -2.1601    0.0000 C    0  0  0  0  0  0  0  0  0  0  0  0
    0.1889   -1.9068    0.0000 O    0  0  0  0  0  0  0  0  0  0  0  0
    3.3793   -0.2765    0.0000 C    0  0  0  0  0  0  0  0  0  0  0  0
    3.2515    0.6939    0.0000 C    0  0  0  0  0  0  0  0  0  0  0  0
    4.0280    1.2897    0.0000 C    0  0  0  0  0  0  0  0  0  0  0  0
    4.9322    0.9152    0.0000 C    0  0  0  0  0  0  0  0  0  0  0  0
    5.0600   -0.0552    0.0000 C    0  0  0  0  0  0  0  0  0  0  0  0
    4.2835   -0.6510    0.0000 C    0  0  0  0  0  0  0  0  0  0  0  0
    0.9787    0.0000    0.0000 P    0  0  0  0  0  0  0  0  0  0  0  0
    1.9574    0.0000    0.0000 O    0  0  0  0  0  0  0  0  0  0  0  0
    0.9787    0.9787    0.0000 C    0  0  0  0  0  0  0  0  0  0  0  0
    0.1311    1.4681    0.0000 C    0  0  0  0  0  0  0  0  0  0  0  0
    0.1311    2.4468    0.0000 C    0  0  0  0  0  0  0  0  0  0  0  0
    0.9787    2.9362    0.0000 C    0  0  0  0  0  0  0  0  0  0  0  0
    1.8263    2.4468    0.0000 C    0  0  0  0  0  0  0  0  0  0  0  0
    1.8263    1.4681    0.0000 C    0  0  0  0  0  0  0  0  0  0  0  0
    0.0000    0.0000    0.0000 C    0  0  0  0  0  0  0  0  0  0  0  0
   -0.4894   -0.8476    0.0000 C    0  0  0  0  0  0  0  0  0  0  0  0
   -1.4681   -0.8476    0.0000 C    0  0  0  0  0  0  0  0  0  0  0  0
   -1.9574    0.0000    0.0000 C    0  0  0  0  0  0  0  0  0  0  0  0
   -1.4681    0.8476    0.0000 C    0  0  0  0  0  0  0  0  0  0  0  0
   -0.4894    0.8476    0.0000 C    0  0  0  0  0  0  0  0  0  0  0  0
  1  2  2  0  0  0  0
  2  3  1  0  0  0  0
  2 28  1  0  0  0  0
  3 20  1  0  0  0  0
  3  4  1  0  0  0  0
  3 22  1  0  0  0  0
  4  5  1  0  0  0  0
  4  6  2  0  0  0  0
  6  7  1  0  0  0  0
  6 14  1  0  0  0  0
  7 13  2  0  0  0  0
  7  8  1  0  0  0  0
  8  9  2  0  0  0  0
  9 10  1  0  0  0  0
 10 11  1  0  0  0  0
 10 12  2  0  0  0  0
 12 13  1  0  0  0  0
 14 19  2  0  0  0  0
 14 15  1  0  0  0  0
 15 16  2  0  0  0  0
 15 20  1  0  0  0  0
 16 17  1  0  0  0  0
 17 18  2  0  0  0  0
 18 19  1  0  0  0  0
 20 21  2  0  0  0  0
 22 27  2  0  0  0  0
 22 23  1  0  0  0  0
 23 24  2  0  0  0  0
 24 25  1  0  0  0  0
 25 26  2  0  0  0  0
 26 27  1  0  0  0  0
 28 29  2  0  0  0  0
 28 30  1  0  0  0  0
 28 36  1  0  0  0  0
 30 35  2  0  0  0  0
 30 31  1  0  0  0  0
 31 32  2  0  0  0  0
 32 33  1  0  0  0  0
 33 34  2  0  0  0  0
 34 35  1  0  0  0  0
 36 41  2  0  0  0  0
 36 37  1  0  0  0  0
 37 38  2  0  0  0  0
 38 39  1  0  0  0  0
 39 40  2  0  0  0  0
 40 41  1  0  0  0  0
M  END
> <NMREDATA_VERSION>
1.1

> <NMREDATA_LEVEL>
0

> <NMREDATA_SOLVENT>
CDCl3

> <NMREDATA_FORMULA>
C37H28BrO2P

> <NMREDATA_SMILES>
Cc1ccc(cc1)C1=C(Br)C(C(=O)c2c1cccc2)(c1ccccc1)C(=C)P(=O)(c1ccccc1)c1ccccc1

> <NMREDATA_ASSIGNMENT>
P28, 30.50, 28

> <NMREDATA_1D_31P>
Larmor=243
30.50, L=P28

$$$$
